
  EPA STORM WATER MANAGEMENT MODEL - VERSION 5.1 (Build 5.1.010)
  --------------------------------------------------------------

  WARNING 04: minimum elevation drop used for Conduit LAT-F42g
  WARNING 04: minimum elevation drop used for Conduit 25
  
  *************
  Element Count
  *************
  Number of rain gages ...... 1
  Number of subcatchments ... 185
  Number of nodes ........... 297
  Number of links ........... 338
  Number of pollutants ...... 0
  Number of land uses ....... 0
  
  
  ****************
  Raingage Summary
  ****************
                                                      Data       Recording
  Name                 Data Source                    Type       Interval 
  ------------------------------------------------------------------------
  RainGage1            TXHYETO-10YR-8.5HR-90PCT       CUMULATIVE  10 min.
  
  
  ********************
  Subcatchment Summary
  ********************
  Name                       Area     Width   %Imperv    %Slope Rain Gage            Outlet              
  -----------------------------------------------------------------------------------------------------------
  DA-F2                      1.38    116.25      0.00    3.8700 RainGage1            IN-F2               
  DA-F2B                     0.24     19.67      0.00    2.9700 RainGage1            IN-F2B              
  DA-F3                      0.29     51.99      0.00    3.4200 RainGage1            IN-F3               
  DA-F3B                     1.15    109.91      0.00    4.0200 RainGage1            IN-F3B              
  DA-F4                      1.21    110.25      0.00    2.7300 RainGage1            IN-F4               
  DA-F5                      1.85     75.23      0.00    3.1000 RainGage1            IN-F5               
  DA-F6                      0.17     36.22      0.00    3.7400 RainGage1            IN-F6               
  DA-F8                      3.42    246.53      0.00    3.5500 RainGage1            IN-F8               
  DA-F9                      0.41    267.95      0.00   22.4400 RainGage1            IN-F9               
  DA-F10                     0.26     46.61      0.00    1.3600 RainGage1            IN-F10              
  DA-F10A                    0.15     29.54      0.00    1.5800 RainGage1            IN-F10A             
  DA-F10B                    0.23     36.09      0.00    1.8100 RainGage1            IN-F10B             
  DA-F10C                    0.20     35.66      0.00    1.7100 RainGage1            IN-F10C             
  DA-F10D                    0.21     37.49      0.00    1.7400 RainGage1            IN-F10D             
  DA-F10E                    0.16     36.77      0.00    1.3600 RainGage1            IN-F10E             
  DA-F10F                    0.33     48.70      0.00    1.7600 RainGage1            IN-F10F             
  DA-F11                     0.90     59.98      0.00    2.1100 RainGage1            IN-F11              
  DA-F12                     0.19     35.88      0.00    0.8700 RainGage1            IN-F12              
  DA-F12B                    0.26     64.82      0.00    1.7300 RainGage1            IN-F12B             
  DA-F13                     0.27    156.76      0.00   14.2700 RainGage1            IN-F13              
  DA-F14                     0.77     45.83      0.00    1.2500 RainGage1            IN-F14              
  DA-F15                     1.72    159.77      0.00    3.5500 RainGage1            IN-F15              
  DA-F16                     0.24     81.01      0.00    0.7800 RainGage1            IN-F16              
  DA-F16B                    0.32     83.96      0.00    1.4000 RainGage1            IN-F16B             
  DA-F16C                    0.22     41.61      0.00    1.3000 RainGage1            IN-F16C             
  DA-F17                     0.28     21.34      0.00    1.7700 RainGage1            IN-F17              
  DA-F18                     1.64    169.96      0.00    3.8100 RainGage1            IN-F18              
  DA-F18B                    2.52    372.74      0.00    3.1500 RainGage1            IN-F18B             
  DA-F19                     0.29     50.47      0.00    1.2000 RainGage1            IN-F19              
  DA-F20                     1.51    115.52      0.00    0.8800 RainGage1            IN-F20              
  DA-F21                     0.32     45.92      0.00    2.0500 RainGage1            IN-F21              
  DA-F22                     0.38     25.78      0.00    1.2300 RainGage1            IN-F22              
  DA-F23                     0.38     96.60      0.00    1.6700 RainGage1            IN-F23              
  DA-F23B                    0.45     85.03      0.00    0.5200 RainGage1            IN-F23B             
  DA-F24                     0.30     30.45      0.00    0.6300 RainGage1            IN-F24              
  DA-F25                     4.30    438.03      0.00    0.7000 RainGage1            IN-F25              
  DA-F26                     8.45    540.34      0.00    0.5900 RainGage1            IN-F26              
  DA-F27                     0.89     39.08      0.00    0.7100 RainGage1            IN-F27              
  DA-F28                     1.01    480.05      0.00    3.2800 RainGage1            IN-F28              
  DA-F29A                    0.70     51.36      0.00    1.3600 RainGage1            IN-F29A             
  DA-F29B                    0.70     51.36      0.00    1.3600 RainGage1            IN-F29B             
  DA-F30                     1.25    181.90      0.00    2.3400 RainGage1            IN-F30              
  DA-F31                     1.05     94.50      0.00    1.6500 RainGage1            IN-F31              
  DA-F32                     0.46     55.72      0.00    0.2500 RainGage1            IN-F32              
  DA-F33A                    0.47    105.51      0.00    0.5100 RainGage1            IN-F33A             
  DA-F33B                    0.76     90.67      0.00    0.2700 RainGage1            IN-F33B             
  DA-F33C                    1.61    355.61      0.00    1.0100 RainGage1            IN-F33C             
  DA-F34                     1.00    211.73      0.00    0.2400 RainGage1            IN-F34              
  DA-F35                     0.29     33.58      0.00    2.2400 RainGage1            IN-F35              
  DA-F37                     0.92     45.94      0.00    1.5500 RainGage1            IN-F37              
  DA-F38                     1.39     72.53      0.00    0.3600 RainGage1            IN-F38              
  DA-F39                     2.77    152.98      0.00    0.6300 RainGage1            IN-F39              
  DA-F40                     0.65    127.04      0.00    2.1300 RainGage1            IN-F40              
  DA-F41                     3.09     99.10      0.00    1.2500 RainGage1            IN-F41              
  DA-F42                     0.69     39.48      0.00    0.3300 RainGage1            IN-F42              
  DA-F43                     2.77    105.15      0.00    2.0900 RainGage1            IN-F43              
  DA-F44A                    0.57     30.89      0.00    0.6200 RainGage1            IN-F44A             
  DA-F45A                    2.12    109.21      0.00    0.4700 RainGage1            IN-F45A             
  DA-F45B                    2.12    109.21      0.00    0.4700 RainGage1            IN-F45B             
  DA-F45C                    2.12    109.21      0.00    0.4700 RainGage1            IN-F45C             
  DA-F46                    21.01   1255.40      0.00    2.2100 RainGage1            IN-F46              
  DA-F47                     0.99     86.35      0.00    3.2200 RainGage1            IN-F47              
  DA-F48                    22.37    862.63      0.00    2.1500 RainGage1            IN-F48              
  DA-F49                     0.96     35.43      0.00    0.3800 RainGage1            IN-F49              
  DA-F50                     2.74    100.34      0.00    0.5900 RainGage1            IN-F50              
  DA-F51                    18.97    855.80      0.00    2.4900 RainGage1            IN-F51              
  DA-F52                     1.37    165.14      0.00    4.7100 RainGage1            IN-F52              
  DA-F52B                    1.27    252.28      0.00    5.3500 RainGage1            IN-F52B             
  DA-F44B                    1.14     61.78      0.00    0.6300 RainGage1            IN-F44B             
  DA-F53                     0.29    258.68      0.00   15.6800 RainGage1            IN-F53              
  DA-F54                     1.00    202.92      0.00    9.0000 RainGage1            IN-F54              
  DA-F55                    10.12    417.98      0.00    2.1100 RainGage1            IN-F55              
  DA-F56                     1.27     35.77      0.00    0.5200 RainGage1            IN-F56              
  DA-F57A                    0.27     32.07      0.00    1.3000 RainGage1            IN-F57A             
  DA-F57B                    0.27     32.07      0.00    1.3000 RainGage1            IN-F57B             
  DA-F58                     0.73     81.63      0.00    1.0200 RainGage1            IN-F58              
  DA-F59                     1.20     66.57      0.00    2.0400 RainGage1            IN-F59              
  DA-F60                     2.62    121.59      0.00    0.9100 RainGage1            IN-F60              
  DA-F61                     1.54     66.13      0.00    0.4700 RainGage1            IN-F61              
  DA-F62                     3.84    100.80      0.00    0.6000 RainGage1            IN-F62              
  DA-F63                     1.12    139.56      0.00    4.1400 RainGage1            IN-F63              
  DA-F63A                    3.40    255.81      0.00    2.3300 RainGage1            IN-F63A             
  DA-F63B                    3.44    253.55      0.00    3.0400 RainGage1            IN-F63B             
  DA-F64                     1.81    142.16      0.00    1.9800 RainGage1            IN-F64              
  DA-F65                     0.79     55.73      0.00    1.9600 RainGage1            IN-F65              
  DA-F66                     0.88    107.14      0.00    5.0900 RainGage1            IN-F66              
  DA-F67                     0.38     46.11      0.00    1.9600 RainGage1            IN-F67              
  DA-F68                     5.50    364.58      0.00    1.8600 RainGage1            IN-F68              
  DA-F69                     7.58    836.24      0.00    3.2900 RainGage1            IN-F69              
  DA-F70                     1.64     58.10      0.00    0.6100 RainGage1            IN-F70              
  DA-F70B                    3.94    128.04      0.00    0.9700 RainGage1            IN-F70B             
  DA-F71                     1.70    125.67      0.00    7.1100 RainGage1            IN-F71              
  DA-F72                     1.22     85.77      0.00    1.9700 RainGage1            IN-F72              
  DA-F74                     2.31     85.97      0.00    0.6900 RainGage1            IN-F74              
  DA-F75                     4.29    165.54      0.00    0.7100 RainGage1            IN-F75              
  DA-F76                     0.38     37.67      0.00    2.8400 RainGage1            IN-F76              
  DA-F77                     3.88    116.88      0.00    1.5200 RainGage1            IN-F77              
  DA-F78                     1.36     59.23      0.00    0.6000 RainGage1            IN-F78              
  DA-F79                     4.62    137.21      0.00    1.5000 RainGage1            IN-F79              
  DA-F80                     0.48     35.11      0.00    2.1800 RainGage1            IN-F80              
  DA-F81                     0.49     31.48      0.00    1.7600 RainGage1            IN-F81              
  DA-F82                     0.93     35.90      0.00    1.6000 RainGage1            IN-F82              
  DA-F83                     3.95    143.07      0.00    0.6600 RainGage1            IN-F83              
  DA-F84                     2.36     51.98      0.00    1.0100 RainGage1            IN-F84              
  DA-F85                     4.51    165.81      0.00    0.7600 RainGage1            IN-F85              
  DA-E1                      0.53     80.15      0.00    0.6900 RainGage1            IN-E1               
  DA-E2                      0.76    174.64      0.00    1.0600 RainGage1            IN-E2               
  DA-E3                      0.16     56.94      0.00    1.2000 RainGage1            IN-E3               
  DA-E4                      0.44    101.32      0.00    0.6500 RainGage1            IN-E4               
  DA-E5                      0.92    120.64      0.00    0.6900 RainGage1            IN-E5               
  DA-E6                      0.32     75.44      0.00    1.0300 RainGage1            IN-E6               
  DA-E7                      0.33     68.99      0.00    0.9600 RainGage1            IN-E7               
  DA-E8                      0.19    125.35      0.00    0.3900 RainGage1            IN-E8               
  DA-E9                      0.12     84.64      0.00    1.5800 RainGage1            IN-E9               
  DA-E10                     0.52    112.22      0.00    0.5000 RainGage1            IN-E10              
  DA-E11                     0.49    117.62      0.00    0.6900 RainGage1            IN-E11              
  DA-E12                     0.61    140.44      0.00    0.9000 RainGage1            IN-E12              
  DA-E13                     0.77    131.65      0.00    0.7900 RainGage1            IN-E13              
  DA-E14                     0.27     98.37      0.00    1.2400 RainGage1            IN-E14              
  DA-E15                     0.24     89.76      0.00    1.0800 RainGage1            IN-E15              
  DA-H1                      0.44     80.03      0.00    0.8400 RainGage1            IN-H1               
  DA-H2                      0.96    155.01      0.00    0.7400 RainGage1            IN-H2               
  DA-H3                      0.42     53.32      0.00    0.5800 RainGage1            IN-H3               
  DA-H4                      0.54    124.63      0.00    1.1900 RainGage1            IN-H4               
  DA-H5                      1.06    137.15      0.00    0.8900 RainGage1            IN-H5               
  DA-H6                      0.58     74.08      0.00    0.9100 RainGage1            IN-H6               
  DA-H7                      1.60    208.21      0.00    1.2000 RainGage1            IN-H7               
  DA-H8                      0.30    156.60      0.00    2.3900 RainGage1            IN-H8               
  DA-H9                      0.38    133.96      0.00    1.2000 RainGage1            IN-H9               
  DA-H10                     1.45    563.43      0.00    0.8900 RainGage1            IN-H10              
  DA-G1                      0.73     58.47      0.00    0.7800 RainGage1            IN-G1               
  DA-G2                      3.52    208.27      0.00    0.2000 RainGage1            IN-G2               
  DA-G3                      1.80    201.88      0.00    0.9700 RainGage1            IN-G3               
  DA-G4                      2.17    204.57      0.00    0.2200 RainGage1            IN-G4               
  DA-G5                      0.53     69.19      0.00    0.2600 RainGage1            IN-G5               
  DA-G6                      0.91    319.34      0.00    3.6200 RainGage1            IN-G6               
  DA-G7                      0.54    166.70      0.00    3.5700 RainGage1            IN-G7               
  DA-G8                      0.34    100.17      0.00    0.8400 RainGage1            IN-G8               
  DA-G9                      0.36     78.17      0.00    0.1200 RainGage1            IN-G9               
  DA-G10                     1.14    121.12      0.00    0.3700 RainGage1            IN-G10              
  DA-G11                     2.84    233.36      0.00    0.5700 RainGage1            IN-G11              
  DA-G12                     0.89    105.48      0.00    0.1000 RainGage1            IN-G12              
  DA-G13                     1.28    148.03      0.00    0.1000 RainGage1            IN-G13              
  DA-G14                     0.44     94.07      0.00    0.3500 RainGage1            IN-G14              
  DA-G15                     0.23    109.02      0.00    1.0700 RainGage1            IN-G15              
  DA-G16                     0.41    169.73      0.00    0.4700 RainGage1            IN-G16              
  DA-G17                     0.64    116.52      0.00    0.2100 RainGage1            IN-G17              
  DA-G18                     0.62    140.14      0.00    0.5200 RainGage1            IN-G18              
  DA-G19                     0.35    103.48      0.00    0.3400 RainGage1            IN-G19              
  DA-1118                   12.41    382.56      0.00    0.4200 RainGage1            IN_1118             
  DA-1119                   18.64    537.25      0.00    0.2600 RainGage1            IN_1119             
  DA-1120                   14.04    311.81      0.00    0.2300 RainGage1            IN_1120             
  DA-1121                    4.73    477.23      0.00    0.9300 RainGage1            IN_1121             
  DA-C1                      1.04     96.77      0.00    0.2100 RainGage1            IN-C1               
  DA-C2                      4.96    137.39      0.00    0.1000 RainGage1            IN-C2               
  DA-C3                      0.12     22.68      0.00    2.4100 RainGage1            IN-C3               
  DA-C4                      1.61    126.87      0.00    0.0500 RainGage1            IN-C4               
  DA-C5                      1.15    130.87      0.00    0.2700 RainGage1            IN-C5               
  DA-C6                      0.91    103.92      0.00    0.1600 RainGage1            IN-C6               
  DA-C7                      3.13    356.78      0.00    0.4200 RainGage1            IN-C7               
  DA-C8                      0.60     44.71      0.00    0.4200 RainGage1            IN-C8               
  DA-C9                     12.87    304.13      0.00    0.3100 RainGage1            IN-C9               
  DA-C10                     0.25     29.47      0.00    0.0500 RainGage1            IN-C10              
  DA-C11                     1.99    134.61      0.00    0.4200 RainGage1            IN-C11              
  DA-C12                     1.63    110.54      0.00    0.1700 RainGage1            IN-C12              
  DA-C13                     0.99    114.91      0.00    0.1300 RainGage1            IN-C13              
  DA-C14                     0.59     68.72      0.00    0.2400 RainGage1            IN-C14              
  DA-C15                     1.69    178.91      0.00    0.2900 RainGage1            IN-C15              
  DA-C16                     0.73     87.57      0.00    0.1900 RainGage1            IN-C16              
  DA-C17                     0.49     58.47      0.00    0.1100 RainGage1            IN-C17              
  DA-C18                     2.36    233.57      0.00    0.2500 RainGage1            IN-C18              
  DA-C19b                    5.25    145.57      0.00    0.2400 RainGage1            IN-C19B             
  DA-C19a                    5.25    145.57      0.00    0.2400 RainGage1            IN-C19A             
  DA-C20                     1.32    136.30      0.00    0.2400 RainGage1            IN-C20              
  LINE-S                   124.91   1004.35      0.00    0.4800 RainGage1            PlayaLake44         
  LINE-R                   197.32   1299.43      0.00    0.4200 RainGage1            PlayaLake44         
  LINE-P                     0.74     49.65      0.00    1.0000 RainGage1            PlayaLake44         
  LINE-W                    58.10    852.38      0.00    0.5600 RainGage1            PlayaLake44b        
  C-2                      135.82   1186.32      0.00    0.5600 RainGage1            PlayaLake44b        
  LATQ1                      2.85    183.31      0.00    0.3000 RainGage1            PlayaLake44b        
  LAT-Q2                     0.86    137.00      0.00    0.7300 RainGage1            PlayaLake44         
  Campus_01                 46.09    367.18    100.00    0.2700 RainGage1            IN_4337             
  Campus_02                 46.09    367.18      0.00    0.2700 RainGage1            IN_4749             
  Campus_03                 46.09    367.18      0.00    0.2700 RainGage1            IN_4748             
  JONES-DRAIN                6.50     53.20    100.00    0.5000 RainGage1            JONES-STORE         
  
  
  ************
  Node Summary
  ************
                                           Invert      Max.    Ponded    External
  Name                 Type                 Elev.     Depth      Area    Inflow  
  -------------------------------------------------------------------------------
  END-OF-PIPES         JUNCTION           3164.00      6.00   10890.0
  MH-33                JUNCTION           3164.48     27.24       0.0
  MH_5452              JUNCTION           3165.43     39.17       0.0
  MH_5447              JUNCTION           3166.61     40.51       0.0
  MH-MF28              JUNCTION           3170.10     30.40       0.0
  IN-F85               JUNCTION           3194.15      5.00   10890.0
  IN-F84               JUNCTION           3195.89      5.50   10890.0
  IN-F83               JUNCTION           3196.15      3.00   10890.0
  EXIST_BEND           JUNCTION           3170.20     35.08       0.0
  M-26                 JUNCTION           3170.70     36.44       0.0
  MF14                 JUNCTION           3171.66     36.09       0.0
  BEND-BF23            JUNCTION           3172.09     29.41   10890.0
  BEND-BF22            JUNCTION           3173.02     32.98   10890.0
  JF34                 JUNCTION           3174.02     17.98       0.0
  JF35                 JUNCTION           3179.37     12.13       0.0
  IN-F81               JUNCTION           3182.27     19.25   10890.0
  IN-F82               JUNCTION           3187.56      3.00   10890.0
  MF13                 JUNCTION           3174.61     35.39       0.0
  IN-F80               JUNCTION           3179.37     25.69   10890.0
  BEND_G               JUNCTION           3204.76      6.24       0.0
  JG2                  JUNCTION           3200.06      9.94       0.0
  JBG2                 JUNCTION           3204.51     12.00       0.0
  JG3                  JUNCTION           3201.30     12.00       0.0
  IN-E1                JUNCTION           3203.11      5.17   10890.0
  IN-E2                JUNCTION           3201.41      5.67   10890.0
  IN-E3                JUNCTION           3201.30      5.67   10890.0
  IN-E4                JUNCTION           3200.48      6.17   10890.0
  IN-E5                JUNCTION           3199.87      6.67   10890.0
  IN-E6                JUNCTION           3199.25      7.17   10890.0
  IN-E7                JUNCTION           3198.09      8.17   10890.0
  JE1                  JUNCTION           3196.75      9.00       0.0
  IN-E8                JUNCTION           3200.52      5.67   10890.0
  IN-E9                JUNCTION           3193.62     12.46   10890.0
  IN-E10               JUNCTION           3194.07     11.50   10890.0
  IN-E11               JUNCTION           3194.36     10.74   10890.0
  IN-E12               JUNCTION           3194.69      9.89   10890.0
  IN-E13               JUNCTION           3195.17      8.67   10890.0
  IN-E14               JUNCTION           3196.74      7.17   10890.0
  IN-E15               JUNCTION           3197.31      6.67   10890.0
  IN-F76               JUNCTION           3184.36     20.35   10890.0
  JF33                 JUNCTION           3177.75     18.00       0.0
  IN-F74               JUNCTION           3185.16      8.50   10890.0
  JF32                 JUNCTION           3179.19     21.81       0.0
  IN-F72               JUNCTION           3199.47      4.00   10890.0
  JF31                 JUNCTION           3179.55     22.45       0.0
  IN-F71               JUNCTION           3197.40      3.00   10890.0
  JF30                 JUNCTION           3180.31     23.69       0.0
  IN-F70               JUNCTION           3194.36      7.00   10890.0
  IN-F70B              JUNCTION           3194.70      4.00   10890.0
  MF11                 JUNCTION           3181.61     26.18       0.0
  IN-F69               JUNCTION           3200.85      3.00   10890.0
  IN-H1                JUNCTION           3212.65      4.67   10890.0
  IN-H2                JUNCTION           3212.17      4.67   10890.0
  IN-H3                JUNCTION           3199.58     16.67   10890.0
  IN-H4                JUNCTION           3213.10      4.00   10890.0
  JH1                  JUNCTION           3207.48      7.72       0.0
  IN-H5                JUNCTION           3209.12      7.00   10890.0
  IN-H6                JUNCTION           3207.59      8.17   10890.0
  IN-H7                JUNCTION           3208.43      6.67   10890.0
  IN-H8                JUNCTION           3208.67      6.17   10890.0
  IN-H9                JUNCTION           3209.42      5.17   10890.0
  IN-H10               JUNCTION           3209.69      4.67   10890.0
  JF29                 JUNCTION           3183.39     27.61       0.0
  IN-F68               JUNCTION           3202.56      3.00   10890.0
  JF28                 JUNCTION           3183.63     26.87       0.0
  IN-F67               JUNCTION           3203.50      4.00   10890.0
  MF10                 JUNCTION           3184.01     25.20       0.0
  JF27                 JUNCTION           3201.24      6.76       0.0
  IN-F66               JUNCTION           3202.23      3.50   10890.0
  BEND_BF20            JUNCTION           3204.87      7.38       0.0
  BEND_BF21            JUNCTION           3210.53      7.47       0.0
  IN-F64               JUNCTION           3211.03      7.17   10890.0
  IN-F65               JUNCTION           3212.37      5.67   10890.0
  JF26                 JUNCTION           3185.15     20.85       0.0
  IN-F61               JUNCTION           3191.05     13.03   10890.0
  BEND_BF18            JUNCTION           3194.11     11.89       0.0
  BEND_BF19            JUNCTION           3194.84      6.32       0.0
  IN-F62               JUNCTION           3195.16      6.00   10890.0
  IN-F63               JUNCTION           3196.20     17.01   10890.0
  JF25                 JUNCTION           3185.44     19.81       0.0
  IN-F60               JUNCTION           3196.01      5.00   10890.0
  IN-F59               JUNCTION           3196.19     16.01   10890.0
  BEND_BF17            JUNCTION           3210.24     19.76       0.0
  BEND_BF16            JUNCTION           3217.24      5.86       0.0
  IN-F58               JUNCTION           3217.38      5.67   10890.0
  IN-F57A              JUNCTION           3217.88      5.17   10890.0
  IN-F57B              JUNCTION           3217.88      5.17   10890.0
  JF24                 JUNCTION           3185.69     20.31       0.0
  IN-F56               JUNCTION           3192.19     11.82   10890.0
  MF9                  JUNCTION           3186.11     15.05       0.0
  IN-F55               JUNCTION           3197.89      4.00   10890.0
  IN-F63B              JUNCTION           3197.53     17.07   10890.0
  JF23B                JUNCTION           3188.32     21.68       0.0
  IN-F63A              JUNCTION           3200.95     15.77   10890.0
  MF8                  JUNCTION           3189.48     23.20       0.0
  IN-F54               JUNCTION           3205.52      3.00   10890.0
  JF23                 JUNCTION           3189.80     23.20       0.0
  IN-F53               JUNCTION           3204.57     14.21   10890.0
  JF22                 JUNCTION           3191.09     19.91       0.0
  IN-F52B              JUNCTION           3202.50     14.98   10890.0
  MF7                  JUNCTION           3192.01     18.19       0.0
  IN-F52               JUNCTION           3202.92     16.23   10890.0
  JF21                 JUNCTION           3192.27     17.63       0.0
  IN-F51               JUNCTION           3202.37      3.00   10890.0
  JF20B                JUNCTION           3192.57     16.43       0.0
  IN-F49               JUNCTION           3195.22     12.30   10890.0
  IN-F50               JUNCTION           3201.67      3.00   10890.0
  JF20                 JUNCTION           3194.24     13.76       0.0
  JF18                 JUNCTION           3194.45     13.05       0.0
  JF19                 JUNCTION           3199.09     13.91       0.0
  IN-F47               JUNCTION           3210.04      3.00   10890.0
  MF6                  JUNCTION           3195.23     11.19       0.0
  JBF14                JUNCTION           3197.57     27.68       0.0
  MF6B                 JUNCTION           3214.94      9.70       0.0
  IN-F40               JUNCTION           3215.05     10.45   10890.0
  BEND_BF11            JUNCTION           3215.84      9.66       0.0
  BEND_BF10            JUNCTION           3216.04     10.96       0.0
  IN-F39               JUNCTION           3217.16      6.67   10890.0
  IN-F38               JUNCTION           3218.04      5.67   10890.0
  IN-F42               JUNCTION           3196.25      8.50   10890.0
  JBF15                JUNCTION           3197.44     22.06       0.0
  MF6C                 JUNCTION           3214.08      9.73       0.0
  BEND_BF14            JUNCTION           3214.48     11.52       0.0
  BEND_BF15            JUNCTION           3215.36     11.14       0.0
  IN-F44A              JUNCTION           3217.22      7.33   10890.0
  IN-F44B              JUNCTION           3217.38      7.17   10890.0
  IN-F45A              JUNCTION           3217.93      6.67   10890.0
  IN-F45B              JUNCTION           3218.43      6.17   10890.0
  IN-F45C              JUNCTION           3218.93      5.67   10890.0
  JF17                 JUNCTION           3195.94     13.06       0.0
  IN-F37               JUNCTION           3199.77      8.00   10890.0
  JF16                 JUNCTION           3196.59     19.91       0.0
  IN-F35               JUNCTION           3206.73     17.59   10890.0
  MF4                  JUNCTION           3196.92     22.04       0.0
  JBF10                JUNCTION           3208.89     18.61       0.0
  IN-F24               JUNCTION           3217.77      9.66   10890.0
  IN-F23B              JUNCTION           3218.98      7.57   10890.0
  IN-F23               JUNCTION           3219.41      5.17   10890.0
  IN-F20               JUNCTION           3220.46      3.00   10890.0
  IN-F25               JUNCTION           3211.84     10.18   10890.0
  IN-F26               JUNCTION           3214.77      6.50   10890.0
  IN-F27               JUNCTION           3215.28      8.17   10890.0
  IN-F28               JUNCTION           3215.46      5.50   10890.0
  MF5                  JUNCTION           3216.80      8.90       0.0
  IN-F32               JUNCTION           3220.83      4.67   10890.0
  IN-F33B              JUNCTION           3217.13      9.17   10890.0
  IN-F31               JUNCTION           3222.30      4.67   10890.0
  JF14                 JUNCTION           3218.16      7.34       0.0
  IN-F33A              JUNCTION           3220.33      5.67   10890.0
  IN-F33C              JUNCTION           3218.43      7.67   10890.0
  JF15                 JUNCTION           3219.60      6.40       0.0
  IN-F34               JUNCTION           3220.85      4.67   10890.0
  IN-F29B              JUNCTION           3220.63      5.67   10890.0
  IN-F29A              JUNCTION           3221.29      5.01   10890.0
  IN-F30               JUNCTION           3222.23      5.17   10890.0
  JF13                 JUNCTION           3197.22     23.28       0.0
  IN-F22               JUNCTION           3218.29      3.00   10890.0
  JF12                 JUNCTION           3197.97     24.03       0.0
  IN-F21               JUNCTION           3214.46      5.00   10890.0
  JF11                 JUNCTION           3198.32     22.43       0.0
  IN-F19               JUNCTION           3217.23      3.00   10890.0
  MF3                  JUNCTION           3198.53     21.05       0.0
  IN-F10F              JUNCTION           3211.69      6.50   10890.0
  IN-F17               JUNCTION           3211.72      7.91   10890.0
  IN-F18               JUNCTION           3207.27      3.00   10890.0
  IN-F18B              JUNCTION           3210.74      5.00   10890.0
  JF10B                JUNCTION           3199.28     18.22       0.0
  IN-F10E              JUNCTION           3210.05      6.50   10890.0
  JBF4                 JUNCTION           3210.40      9.60       0.0
  IN-F16C              JUNCTION           3216.40      6.50   10890.0
  JF10                 JUNCTION           3199.58     15.92       0.0
  IN-F10D              JUNCTION           3208.30      6.00   10890.0
  JBF7                 JUNCTION           3208.51     14.99       0.0
  IN-F16B              JUNCTION           3220.71      5.67   10890.0
  JF9                  JUNCTION           3199.88     13.12       0.0
  IN-F10C              JUNCTION           3207.10      5.00   10890.0
  JBF3                 JUNCTION           3207.16     15.84       0.0
  IN-F16               JUNCTION           3223.10      5.67   10890.0
  IN-F14               JUNCTION           3201.62     10.01   10890.0
  IN-F15               JUNCTION           3206.10      4.00   10890.0
  MF2B                 JUNCTION           3200.20     10.51       0.0
  IN-F10B              JUNCTION           3204.64      5.00   10890.0
  IN-F12B              JUNCTION           3204.15      5.00   10890.0
  JF8                  JUNCTION           3200.44      9.31       0.0
  IN-F10A              JUNCTION           3203.54      5.00   10890.0
  BEND_BF8             JUNCTION           3202.19     11.81       0.0
  IN-F13               JUNCTION           3205.30     19.82   10890.0
  BEND_BF7             JUNCTION           3200.47      9.23       0.0
  BEND_BF6             JUNCTION           3200.56      8.44       0.0
  JF7                  JUNCTION           3200.78      8.02       0.0
  IN-F11               JUNCTION           3203.21      4.00   10890.0
  BEND_BF5             JUNCTION           3204.02      3.98       0.0
  IN-F12               JUNCTION           3204.45      3.50   10890.0
  JF6                  JUNCTION           3200.81      7.99       0.0
  IN-F10               JUNCTION           3203.75      4.00   10890.0
  JF5                  JUNCTION           3200.97      8.03       0.0
  IN-F9                JUNCTION           3202.74     14.49   10890.0
  MF2                  JUNCTION           3201.26      8.59       0.0
  IN-F8                JUNCTION           3203.33      3.00   10890.0
  BEND_BF3             JUNCTION           3201.99      9.51       0.0
  JF4                  JUNCTION           3202.01      9.99       0.0
  BEND_BF2             JUNCTION           3205.13      6.37       0.0
  BEND_BF1             JUNCTION           3202.07      9.93       0.0
  IN-F6                JUNCTION           3206.95     17.16   10890.0
  JF2                  JUNCTION           3202.44     13.06       0.0
  IN-F4                JUNCTION           3212.34      3.50   10890.0
  IN-F5                JUNCTION           3206.15      8.00   10890.0
  MF1B                 JUNCTION           3203.08     22.23       0.0
  IN-F3                JUNCTION           3221.47      4.00   10890.0
  IN-F3B               JUNCTION           3217.91      3.00   10890.0
  MF1                  JUNCTION           3203.80     32.91       0.0
  IN-F2                JUNCTION           3223.13      4.50   10890.0
  IN-F2B               JUNCTION           3226.47      3.00   10890.0
  JB_0931              JUNCTION           3207.10     15.00    4356.0
  MH_5043              JUNCTION           3208.20     15.00    4356.0
  JC10                 JUNCTION           3198.55      5.45   10890.0
  IN-C20               JUNCTION           3198.94      5.17   10890.0
  IN-C19A              JUNCTION           3199.81      4.67   10890.0
  IN-C19B              JUNCTION           3199.88      4.67   10890.0
  IN-C18               JUNCTION           3200.20      4.67   10890.0
  IN-C16               JUNCTION           3201.45      4.67   10890.0
  IN-C15               JUNCTION           3201.24      4.67   10890.0
  IN-C13               JUNCTION           3201.82      4.67   10890.0
  IN-C10               JUNCTION           3203.11      4.67   10890.0
  IN-C7                JUNCTION           3204.93      5.17   10890.0
  IN-C6                JUNCTION           3206.03      5.17   10890.0
  IN-C5                JUNCTION           3206.65      4.67   10890.0
  JB_1120              JUNCTION           3207.52     10.00       0.0
  JB_0643              JUNCTION           3207.40     10.00    4356.0
  1                    OUTFALL            3162.78      4.00       0.0
  ConcreteChannel      OUTFALL            3220.38      3.00       0.0
  PlayaLake44          STORAGE            3213.50     12.50       0.0
  PlayaLake44b         STORAGE            3216.00     10.00       0.0
  IN_4337              STORAGE            3211.08     10.00       0.0
  IN_4749              STORAGE            3211.13     10.00       0.0
  IN_4748              STORAGE            3210.35     10.00       0.0
  IN-F79               STORAGE            3178.84     31.16       0.0
  IN-F78               STORAGE            3177.90     18.13       0.0
  IN-F77               STORAGE            3182.33     27.67       0.0
  IN-F48               STORAGE            3201.86      6.00       0.0
  IN-F41               STORAGE            3197.50      8.00       0.0
  IN-F43               STORAGE            3197.35      8.00       0.0
  IN_1120              STORAGE            3208.27     10.00       0.0
  IN_1118              STORAGE            3210.09     10.00       0.0
  IN_1119              STORAGE            3208.76     10.00       0.0
  IN-C9                STORAGE            3203.30      8.00       0.0
  IN-F46               STORAGE            3200.53     12.00       0.0
  IN-G2                STORAGE            3211.71      5.00       0.0
  IN-G3                STORAGE            3209.04      7.00       0.0
  IN-G4                STORAGE            3208.78      7.00       0.0
  JC3                  STORAGE            3201.20     10.00       0.0
  JBG1                 STORAGE            3200.13     12.00       0.0
  IN_1121              STORAGE            3207.12     10.00       0.0
  IN-G12               STORAGE            3205.29     11.00       0.0
  IN-C3                STORAGE            3205.33     10.00       0.0
  IN-C1                STORAGE            3204.67     10.00       0.0
  IN-C2                STORAGE            3206.52     10.00       0.0
  MC1                  STORAGE            3204.52     10.00       0.0
  IN-C4                STORAGE            3203.61     10.00       0.0
  JC1                  STORAGE            3202.91     10.00       0.0
  JC2                  STORAGE            3201.92     10.00       0.0
  IN-C8                STORAGE            3201.30     10.00       0.0
  JC4                  STORAGE            3201.10     10.00       0.0
  IN-C11               STORAGE            3200.39     10.00       0.0
  JC5                  STORAGE            3200.21     10.00       0.0
  JC6                  STORAGE            3200.02     10.00       0.0
  IN-C14               STORAGE            3198.83     10.00       0.0
  JC7                  STORAGE            3198.67     10.00       0.0
  JC8                  STORAGE            3198.57     10.00       0.0
  IN-C17               STORAGE            3197.80     10.00       0.0
  JC9                  STORAGE            3197.63     10.00       0.0
  MH_30                STORAGE            3169.90     44.40       0.0
  IN-G1                STORAGE            3208.59     10.00       0.0
  MG1                  STORAGE            3208.26     10.00       0.0
  JG1                  STORAGE            3207.82     10.00       0.0
  IN-G5                STORAGE            3207.06     10.00       0.0
  IN-G6                STORAGE            3206.80     10.00       0.0
  IN-G7                STORAGE            3205.56      6.17       0.0
  IN-G8                STORAGE            3205.31      6.17       0.0
  IN-G9                STORAGE            3204.43     10.00       0.0
  IN-G10               STORAGE            3199.26     20.00       0.0
  IN-G11               STORAGE            3204.53     10.00       0.0
  IN-C12               STORAGE            3201.94      4.67       0.0
  201                  STORAGE            3209.57     10.00       0.0
  203                  STORAGE            3210.31     10.00       0.0
  205                  STORAGE            3210.88     10.00       0.0
  IN-G14               STORAGE            3201.45     12.00       0.0
  IN-G15               STORAGE            3202.69     12.00       0.0
  IN-G16               STORAGE            3202.99     12.00       0.0
  IN-G17               STORAGE            3203.78     12.00       0.0
  IN-G18               STORAGE            3204.28     12.00       0.0
  IN-G19               STORAGE            3204.65     12.00       0.0
  IN-G13               STORAGE            3204.89     12.00       0.0
  IN-F75               STORAGE            3186.50      8.50       0.0
  JONES-STORE          STORAGE            3176.00     16.00       0.0
  MF12                 STORAGE            3176.01     17.44       0.0
  MH_5339              STORAGE            3207.01     15.00       0.0
  
  
  ************
  Link Summary
  ************
  Name             From Node        To Node          Type            Length    %Slope Roughness
  ---------------------------------------------------------------------------------------------
  RUNOUT           END-OF-PIPES     1                CONDUIT           25.0    4.8858    0.0160
  M-0-5-6          MH-33            END-OF-PIPES     CONDUIT          167.5    0.2866    0.0160
  M-O-4            MH_5452          MH-33            CONDUIT          284.0    0.0880    0.0160
  M-O-3            MH_5447          MH_5452          CONDUIT         1317.5    0.0896    0.0160
  CL-F00           MH-MF28          MH_30            CONDUIT          218.5    0.0915    0.0160
  M-O-2            MH_30            MH_5447          CONDUIT         3686.1    0.0893    0.0160
  LAT-F59a         IN-F85           MH-MF28          CONDUIT          172.7    2.1543    0.0160
  LAT-F59b         IN-F84           IN-F85           CONDUIT           74.5    1.6647    0.0160
  LAT-59c          IN-F83           IN-F84           CONDUIT           74.0    0.3514    0.0160
  CL-F01a          EXIST_BEND       MH-MF28          CONDUIT           24.5    0.4078    0.0160
  CL-F01b          M-26             EXIST_BEND       CONDUIT          639.3    0.0782    0.0160
  CL-F02           MF14             M-26             CONDUIT          820.9    0.1169    0.0160
  CL-F03a          BEND-BF23        MF14             CONDUIT          197.5    0.2177    0.0160
  CL-F03b          BEND-BF22        BEND-BF23        CONDUIT          430.4    0.2161    0.0160
  CL-F03c          JF34             BEND-BF22        CONDUIT          466.1    0.2145    0.0160
  LAT-F57a         JF35             JF34             CONDUIT            8.0    4.3792    0.0160
  LAT-F57b         IN-F81           JF35             CONDUIT           99.5    2.9158    0.0160
  LAT-F58          IN-F82           JF35             CONDUIT           32.0   26.4756    0.0160
  CL-F04           MF13             JF34             CONDUIT          270.4    0.2182    0.0160
  LAT-F55          IN-F77           MF13             CONDUIT           75.0    4.9661    0.0160
  LAT-F56a         IN-F78           MF13             CONDUIT            7.0    1.8575    0.0160
  LAT-F56b         IN-F79           IN-F78           CONDUIT           87.5    1.0743    0.0160
  LAT-F56c         IN-F80           IN-F79           CONDUIT           10.6    4.9874    0.0160
  CL-G08           IN-G10           IN-F80           CONDUIT           90.5   22.9419    0.0160
  CL-G07           IN-G9            IN-G10           CONDUIT          115.0    0.6087    0.0160
  CL-G06a          BEND_G           IN-G9            CONDUIT           78.1    0.4224    0.0160
  CL-G06b          IN-G8            BEND_G           CONDUIT          130.4    0.4218    0.0160
  CL-G05           IN-G7            IN-G8            CONDUIT           77.0    0.3247    0.0160
  CL-G04           IN-G6            IN-G7            CONDUIT          241.0    0.3071    0.0160
  CL-G03           IN-G5            IN-G6            CONDUIT           78.0    0.3333    0.0160
  CL-G02           JG1              IN-G5            CONDUIT          167.4    0.4540    0.0160
  CL-G01           MG1              JG1              CONDUIT           95.5    0.4608    0.0160
  CL-G00           IN-G1            MG1              CONDUIT           70.1    0.4706    0.0160
  LAT-G1a          IN-G4            JG1              CONDUIT           41.8    0.5023    0.0160
  LAT-G1b          IN-G3            IN-G4            CONDUIT           61.0    0.4262    0.0160
  CL-G09           JG2              IN-G10           CONDUIT           63.1    0.7288    0.0160
  LAT-G2           IN-G11           JG2              CONDUIT           17.3   20.4247    0.0160
  CL-G10           JBG1             JG2              CONDUIT           32.2    0.2171    0.0160
  LAT-G3           JBG2             JBG1             CONDUIT           82.0    4.1280    0.0160
  LAT-G4           IN-G12           JBG2             CONDUIT            5.9    8.5490    0.0160
  CL-G11           JG3              JBG1             CONDUIT           81.7    0.2082    0.0160
  LAT-G5           IN-G13           JG3              CONDUIT          137.0    2.2565    0.0160
  CL-G12           IN-G14           JG3              CONDUIT           73.0    0.2054    0.0160
  CL-G13           IN-G15           IN-G14           CONDUIT           89.0    0.2697    0.0160
  CL-G14           IN-G16           IN-G15           CONDUIT          112.0    0.2679    0.0160
  CL-G15           IN-G17           IN-G16           CONDUIT          308.7    0.2559    0.0160
  CL-G16           IN-G18           IN-G17           CONDUIT          168.0    0.2976    0.0160
  CL-G17           IN-G19           IN-G18           CONDUIT          152.0    0.2434    0.0160
  CL-E01           IN-E1            IN-E2            CONDUIT          192.0    0.8855    0.0160
  CL-E02           IN-E2            IN-E3            CONDUIT           32.0    0.3438    0.0160
  CL-E03           IN-E3            IN-E4            CONDUIT          188.0    0.4362    0.0160
  CL-E04           IN-E4            IN-E5            CONDUIT           60.0    1.0167    0.0160
  CL-E05           IN-E5            IN-E6            CONDUIT           61.0    1.0164    0.0160
  CL-E06           IN-E6            IN-E7            CONDUIT           94.0    1.2341    0.0160
  CL-E07           IN-E7            JE1              CONDUIT           32.9    4.0825    0.0160
  LAT-E1           IN-E8            JE1              CONDUIT           31.7   11.1839    0.0160
  CL-E08           JE1              IN-E9            CONDUIT           67.5    3.8981    0.0160
  CL-E09           IN-E9            M-26             CONDUIT           49.8    2.3701    0.0160
  CL-E10           IN-E10           IN-E9            CONDUIT          219.0    0.2055    0.0160
  CL-E11           IN-E11           IN-E10           CONDUIT          142.5    0.2035    0.0160
  CL-E12           IN-E12           IN-E11           CONDUIT          159.0    0.2075    0.0160
  CL-E13           IN-E13           IN-E12           CONDUIT          226.0    0.2124    0.0160
  CL-E14           IN-E14           IN-E13           CONDUIT           92.0    0.6196    0.0160
  CL-E15           IN-E15           IN-E14           CONDUIT           94.0    0.6064    0.0160
  LAT-F54          IN-F76           MF12             CONDUIT          114.1    2.4997    0.0160
  CL-F05           MF12             MF13             CONDUIT          646.5    0.2165    0.0160
  CL-F06           JF33             MF12             CONDUIT          611.6    0.1210    0.0160
  LAT-F53a         IN-F74           JF33             CONDUIT           12.7   41.9600    0.0160
  LAT-F53b         IN-F75           IN-F74           CONDUIT           70.7    1.8954    0.0160
  CL-F07           JF32             JF33             CONDUIT          670.5    0.2148    0.0160
  LAT-F51          IN-F72           JF32             CONDUIT           75.5   24.2448    0.0160
  CL-F08           JF31             JF32             CONDUIT          166.6    0.2161    0.0160
  LAT-F50          IN-F71           JF31             CONDUIT           42.0   39.4707    0.0160
  CL-F09           JF30             JF31             CONDUIT          344.9    0.2203    0.0160
  LAT-F49b         IN-F70           JF30             CONDUIT           13.5  111.6821    0.0160
  LAT-F49a         IN-F70B          IN-F70           CONDUIT           72.9    0.4662    0.0160
  CL-F10           MF11             JF30             CONDUIT          599.0    0.2170    0.0160
  LAT-F48          IN-F69           MF11             CONDUIT           95.7    0.5018    0.0160
  CL-H00           IN-H1            IN-H2            CONDUIT          126.0    0.3810    0.0160
  CL-H01           IN-H2            IN-H3            CONDUIT          155.0    0.3806    0.0160
  LAT-H1           IN-H4            IN-H3            CONDUIT            4.8   11.3219    0.0160
  CL-H02           JH1              IN-H3            CONDUIT           98.5    0.3350    0.0160
  LAT-H3           IN-H5            JH1              CONDUIT           13.7   10.1686    0.0160
  CL-H03           IN-H6            JH1              CONDUIT           31.5    0.3492    0.0160
  CL-H04           IN-H7            IN-H6            CONDUIT          257.6    0.3261    0.0160
  CL-H05           IN-H8            IN-H7            CONDUIT          100.0    0.2400    0.0160
  CL-H06           IN-H9            IN-H8            CONDUIT           95.0    0.2632    0.0160
  CL-H07           IN-H10           IN-H9            CONDUIT           85.0    0.3176    0.0160
  LAT-H2           IN-H3            MF11             CONDUIT          183.3    1.4899    0.0160
  CL-F11           JF29             MF11             CONDUIT          830.9    0.2142    0.0160
  LAT-F47          IN-F68           JF29             CONDUIT           95.5   15.5458    0.0160
  CL-F12           JF28             JF29             CONDUIT          119.7    0.2005    0.0160
  LAT-F46          IN-F67           JF28             CONDUIT          123.7   12.5160    0.0160
  CL-F13           MF10             JF28             CONDUIT          170.4    0.2230    0.0160
  LAT-F44a         JF27             MF10             CONDUIT          105.6    7.8158    0.0160
  LAT-F45          IN-F66           JF27             CONDUIT           25.0    1.9596    0.0160
  LAT-F44b         BEND_BF20        JF27             CONDUIT           18.1    4.4846    0.0160
  LAT-F44c         BEND_BF21        BEND_BF20        CONDUIT          136.0    4.1654    0.0160
  LAT-F44d         IN-F64           BEND_BF21        CONDUIT            9.7    5.1829    0.0160
  LAT-F44e         IN-F65           IN-F64           CONDUIT           64.6    2.0760    0.0160
  CL-F14           JF26             MF10             CONDUIT          526.5    0.2165    0.0160
  LAT-F43a         IN-F61           JF26             CONDUIT            6.0   98.0196    0.0160
  LAT-F43b         BEND_BF18        IN-F61           CONDUIT            6.4    0.9420    0.0160
  LAT-F43c         BEND_BF19        BEND_BF18        CONDUIT          117.6    0.6207    0.0160
  LAT-F43d         IN-F62           BEND_BF19        CONDUIT           47.8    0.6692    0.0160
  LAT-F43e         IN-F63           IN-F62           CONDUIT            5.5    0.7273    0.0160
  CL-F15           JF25             JF26             CONDUIT          134.4    0.2158    0.0160
  LAT-F42a         IN-F60           JF25             CONDUIT           82.2    9.8565    0.0160
  LAT-F42b         IN-F59           IN-F60           CONDUIT            6.5    2.7703    0.0160
  LAT-F42c         BEND_BF17        IN-F59           CONDUIT           64.9    1.6017    0.0160
  LAT-F42d         BEND_BF16        BEND_BF17        CONDUIT          449.7    1.5566    0.0160
  LAT-F42e         IN-F58           BEND_BF16        CONDUIT            7.5    1.8670    0.0160
  LAT-F42f         IN-F57A          IN-F58           CONDUIT           60.5    0.8265    0.0160
  LAT-F42g         IN-F57B          IN-F57A          CONDUIT            1.0    0.1000    0.0160
  CL-F16           JF24             JF25             CONDUIT          115.6    0.2162    0.0160
  LAT-F41          IN-F56           JF24             CONDUIT            6.0   80.4153    0.0160
  CL-F17           MF9              JF24             CONDUIT          197.7    0.2125    0.0160
  LAT-F40          IN-F55           MF9              CONDUIT           84.9    0.4946    0.0160
  LAT-F40B         IN-F63B          MF9              CONDUIT          102.6    0.5264    0.0160
  CL-F18           JF23B            MF9              CONDUIT          559.9    0.2161    0.0160
  LAT-F39B         IN-F63A          JF23B            CONDUIT          108.2    9.8703    0.0160
  CL-F19           MF8              JF23B            CONDUIT          539.7    0.2149    0.0160
  LAT-F39          IN-F54           MF8              CONDUIT           71.9    0.4731    0.0160
  CL-F20           JF23             MF8              CONDUIT          144.2    0.2220    0.0160
  LAT-F38          IN-F53           JF23             CONDUIT          111.0   11.5814    0.0160
  CL-F21           JF22             JF23             CONDUIT          664.5    0.1941    0.0160
  LAT-F37          IN-F52B          JF22             CONDUIT          110.5    8.5469    0.0160
  CL-F22           MF7              JF22             CONDUIT          426.5    0.2157    0.0160
  LAT-F36B         IN-F52           MF7              CONDUIT          116.6    0.5316    0.0160
  CL-F23           JF21             MF7              CONDUIT          120.3    0.2162    0.0160
  LAT-F36          IN-F51           JF21             CONDUIT           85.4    7.4934    0.0160
  CL-F24           JF20B            JF21             CONDUIT          144.7    0.2074    0.0160
  LAT-F35a         IN-F49           JF20B            CONDUIT            5.6   11.5667    0.0160
  LAT-F35b         IN-F50           IN-F49           CONDUIT           99.7    6.4830    0.0160
  CL-F25           JF20             JF20B            CONDUIT          305.9    0.2191    0.0160
  LAT-F34          IN-F48           JF20             CONDUIT           58.7   10.5140    0.0160
  CL-F26           JF18             JF20             CONDUIT          101.5    0.2069    0.0160
  LAT-F32a         JF19             JF18             CONDUIT          100.2    3.1365    0.0160
  LAT-F33          IN-F47           JF19             CONDUIT           44.1   25.6017    0.0160
  LAT-F32b         IN-F46           JF19             CONDUIT           46.4    3.1023    0.0160
  CL-F27           MF6              JF18             CONDUIT          357.3    0.2183    0.0160
  LAT-F30a         IN-F41           MF6              CONDUIT           65.0    2.0466    0.0160
  LAT-F30b         JBF14            IN-F41           CONDUIT           11.2    0.6273    0.0160
  LAT-F30c         MF6B             JBF14            CONDUIT           73.0    0.3696    0.0160
  LAT-F30d         IN-F40           MF6B             CONDUIT           31.9    0.3454    0.0160
  LAT-F30e         BEND_BF11        IN-F40           CONDUIT           80.5    0.3604    0.0160
  LAT-F30f         BEND_BF10        BEND_BF11        CONDUIT           55.5    0.3602    0.0160
  LAT-F30g         IN-F39           BEND_BF10        CONDUIT          307.0    0.3648    0.0160
  LAT-F30h         IN-F38           IN-F39           CONDUIT          110.5    0.7964    0.0160
  LAT-F31a         IN-F42           MF6              CONDUIT            7.0    0.4286    0.0160
  LAT-F31b         IN-F43           IN-F42           CONDUIT           81.0    0.7409    0.0160
  LAT-F31c         JBF15            IN-F43           CONDUIT            9.8    0.9175    0.0160
  LAT-F31d         MF6C             JBF15            CONDUIT           58.8    1.2765    0.0160
  LAT-F31e         BEND_BF14        MF6C             CONDUIT           38.7    1.0328    0.0160
  LAT-F31f         BEND_BF15        BEND_BF14        CONDUIT           87.7    1.0037    0.0160
  LAT-F31g         IN-F44A          BEND_BF15        CONDUIT          181.8    1.0229    0.0160
  LAT-F31h         IN-F44B          IN-F44A          CONDUIT           11.0    1.4547    0.0160
  LAT-F31i         IN-F45A          IN-F44B          CONDUIT          127.6    0.4312    0.0160
  LAT-F31j         IN-F45B          IN-F45A          CONDUIT           11.0    4.5502    0.0160
  LAT-F31k         IN-F45C          IN-F45B          CONDUIT           11.0    4.5502    0.0160
  CL-F28           JF17             MF6              CONDUIT          331.1    0.2144    0.0160
  LAT-F29          IN-F37           JF17             CONDUIT            6.5   38.3979    0.0160
  CL-F29           JF16             JF17             CONDUIT          303.1    0.2144    0.0160
  LAT-F27          IN-F35           JF16             CONDUIT           74.5   11.6761    0.0160
  CL-F30           MF4              JF16             CONDUIT          149.6    0.2205    0.0160
  LAT-F21a         JBF10            MF4              CONDUIT           77.0    3.2094    0.0160
  LAT-F21b         IN-F24           JBF10            CONDUIT           35.6    0.6171    0.0160
  LAT-F21c         IN-F23B          IN-F24           CONDUIT          226.9    0.5333    0.0160
  LAT-F21d         IN-F23           IN-F23B          CONDUIT          138.1    0.3114    0.0160
  LAT-F21e         IN-F20           IN-F23           CONDUIT            3.2   35.2295    0.0160
  LAT-F22a         IN-F25           MF4              CONDUIT          212.8    3.2542    0.0160
  LAT-F22b         IN-F26           IN-F25           CONDUIT          554.6    0.5283    0.0160
  LAT-F22c         IN-F27           IN-F26           CONDUIT           15.2    3.3660    0.0160
  LAT-F22d         IN-F28           IN-F27           CONDUIT           45.7    0.3937    0.0160
  LAT-F22e         MF5              IN-F28           CONDUIT          199.1    0.4219    0.0160
  LAT-F24          IN-F32           MF5              CONDUIT          299.0    0.2742    0.0160
  LAT-F22f         IN-F33B          MF5              CONDUIT            6.6    5.0292    0.0160
  LAT-F23          IN-F31           IN-F33B          CONDUIT          368.5    0.4532    0.0160
  LAT-F22g         JF14             IN-F33B          CONDUIT          161.0    0.4100    0.0160
  LAT-F22h         IN-F33C          JF14             CONDUIT           45.0    0.6005    0.0160
  LAT-F22i         JF15             IN-F33C          CONDUIT          239.2    0.4892    0.0160
  LAT-F26          IN-F34           JF15             CONDUIT           19.9    5.6371    0.0160
  LAT-F22j         IN-F29B          JF15             CONDUIT          212.0    0.4859    0.0160
  LAT-F22k         IN-F29A          IN-F29B          CONDUIT           15.0    1.0667    0.0160
  LAT-F25          IN-F33A          JF14             CONDUIT           84.0    2.5833    0.0160
  LAT-F22l         IN-F30           IN-F29A          CONDUIT          161.3    0.5827    0.0160
  CL-F31           JF13             MF4              CONDUIT          139.0    0.2158    0.0160
  LAT-F20          IN-F22           JF13             CONDUIT          116.0   17.1175    0.0160
  CL-F32           JF12             JF13             CONDUIT          347.3    0.2160    0.0160
  LAT-F19          IN-F21           JF12             CONDUIT          145.3   10.3727    0.0160
  CL-F33           JF11             JF12             CONDUIT          163.1    0.2146    0.0160
  LAT-F17          IN-F19           JF11             CONDUIT          105.9   16.6733    0.0160
  CL-F34           MF3              JF11             CONDUIT           97.9    0.2145    0.0160
  LAT-F15a         IN-F10F          MF3              CONDUIT           64.6    0.4954    0.0160
  LAT-F15b         IN-F17           IN-F10F          CONDUIT            6.0    0.5000    0.0160
  LAT-F16a         IN-F18           MF3              CONDUIT          118.9    0.5045    0.0160
  LAT-F16b         IN-F18B          IN-F18           CONDUIT           51.7    6.7296    0.0160
  CL-F35           JF10B            MF3              CONDUIT          112.4    0.2224    0.0160
  LAT-F10Ea        IN-F10E          JF10B            CONDUIT           60.6   15.9017    0.0160
  LAT-F10Eb        JBF4             IN-F10E          CONDUIT            7.5    4.7032    0.0160
  LAT-F10Ec        IN-F16C          JBF4             CONDUIT           35.1    7.6289    0.0160
  CL-F36           JF10             JF10B            CONDUIT          143.6    0.2089    0.0160
  LAT-F14a         IN-F10D          JF10             CONDUIT           58.3   12.9218    0.0160
  LAT-F14b         JBF7             IN-F10D          CONDUIT           13.5    1.5534    0.0160
  LAT-F14c         IN-F16B          JBF7             CONDUIT           35.9    8.3601    0.0160
  CL-F37           JF9              JF10             CONDUIT          138.1    0.2172    0.0160
  LAT-F10Ca        IN-F10C          JF9              CONDUIT           56.0   10.7160    0.0160
  LAT-F10Cb        JBF3             IN-F10C          CONDUIT            4.7    1.2822    0.0160
  LAT-F10Cc        IN-F16           JBF3             CONDUIT           48.3    6.7677    0.0160
  LAT-F13a         IN-F14           JF9              CONDUIT          103.4    0.4739    0.0160
  LAT-F13b         IN-F15           IN-F14           CONDUIT            7.8   70.8420    0.0160
  CL-F38           MF2B             JF9              CONDUIT          159.9    0.2002    0.0160
  LAT-F10B         IN-F10B          MF2B             CONDUIT           52.3    0.5930    0.0160
  LAT-F12B         IN-F12B          MF2B             CONDUIT           85.5    0.5499    0.0160
  CL-F39           JF8              MF2B             CONDUIT           93.3    0.2573    0.0160
  LAT-F10A         IN-F10A          JF8              CONDUIT           51.7    3.5786    0.0160
  LAT-F12a         BEND_BF8         JF8              CONDUIT            9.4    5.2422    0.0160
  LAT-F12bb        IN-F13           BEND_BF8         CONDUIT           72.8    4.2747    0.0160
  CL-F40           BEND_BF7         JF8              CONDUIT           15.3    0.1958    0.0160
  CL-F41           BEND_BF6         BEND_BF7         CONDUIT           38.6    0.2329    0.0160
  CL-F42           JF7              BEND_BF6         CONDUIT          103.0    0.2136    0.0160
  LAT-F11a         IN-F11           JF7              CONDUIT           18.2    6.5044    0.0160
  LAT-F11b         BEND_BF5         IN-F11           CONDUIT           37.0    2.1927    0.0160
  LAT-F11c         IN-F12           BEND_BF5         CONDUIT           18.5    2.3300    0.0160
  CL-F43           JF6              JF7              CONDUIT           14.6    0.2059    0.0160
  LAT-F10          IN-F10           JF6              CONDUIT           42.5    3.9768    0.0160
  LAT-F9           IN-F9            JF5              CONDUIT           49.3    1.0559    0.0160
  CL-F45           MF2              JF5              CONDUIT          136.7    0.2122    0.0160
  CL-F44           JF5              JF6              CONDUIT           73.8    0.2167    0.0160
  LAT-F8           IN-F8            MF2              CONDUIT           95.2    0.5777    0.0160
  CL-F46           BEND_BF3         MF2              CONDUIT          104.0    0.2211    0.0160
  CL-F47           JF4              BEND_BF3         CONDUIT           10.8    0.1860    0.0160
  LAT-F6a          BEND_BF2         JF4              CONDUIT           28.1    7.5688    0.0160
  LAT-F6b          IN-F6            BEND_BF2         CONDUIT           24.2    7.5358    0.0160
  CL-C48           BEND_BF1         JF4              CONDUIT           27.9    0.2151    0.0160
  CL-F49           JF2              BEND_BF1         CONDUIT          169.2    0.2187    0.0160
  LAT-F4           IN-F4            JF2              CONDUIT           65.8   13.6428    0.0160
  LAT-F5           IN-F5            JF2              CONDUIT            7.5   38.7515    0.0160
  CL-F50           MF1B             JF2              CONDUIT          298.9    0.2141    0.0160
  LAT-F3           IN-F3            MF1B             CONDUIT           49.9    2.5485    0.0160
  LAT-F3B          IN-F3B           MF1B             CONDUIT           88.0    0.5227    0.0160
  CL-F51           MF1              MF1B             CONDUIT          331.1    0.2174    0.0160
  LAT-F2a          IN-F2            MF1              CONDUIT          134.6    0.4979    0.0160
  LAT-F2b          IN-F2B           IN-F2            CONDUIT           57.9    5.7792    0.0160
  LAT-F1           PlayaLake44      MF1              CONDUIT          244.4    0.5114    0.0160
  C167             MH_5339          JBG2             CONDUIT          601.9    0.4153    0.0160
  C168             JB_0931          MH_5339          CONDUIT           86.8    0.1083    0.0160
  C169             IN_1121          JB_0931          CONDUIT           14.8    0.1082    0.0160
  C170             JB_0643          IN_1121          CONDUIT           79.5    0.3559    0.0160
  171              JB_1120          JB_0643          CONDUIT           33.4    0.3501    0.0160
  172              IN_1120          JB_1120          CONDUIT           11.1    6.7882    0.0160
  C173             MH_5043          JB_1120          CONDUIT          190.1    0.3578    0.0160
  C174             IN_1119          MH_5043          CONDUIT          366.4    0.1528    0.0160
  C175             IN_1118          IN_1119          CONDUIT          122.0    1.0899    0.0160
  CL-C01           JC10             MH_30            CONDUIT           12.8    1.0141    0.0160
  CL-C02           IN-C20           JC10             CONDUIT           48.5    0.8035    0.0160
  LAT-C12a         IN-C19A          JC10             CONDUIT           33.0    3.8233    0.0160
  LAT-C12b         IN-C19B          IN-C19A          CONDUIT            6.0    1.1667    0.0160
  CL-C03           JC9              MH_30            CONDUIT           39.0    0.5387    0.0160
  LAT-C11          IN-C18           JC9              CONDUIT           30.5    6.7981    0.0160
  CL-C04           IN-C17           JC9              CONDUIT           35.2    0.4835    0.0160
  CL-C05           JC8              IN-C17           CONDUIT          272.2    0.2829    0.0160
  LAT-C10          IN-C16           JC8              CONDUIT           32.5    7.3337    0.0160
  CL-C06           JC7              JC8              CONDUIT           35.4    0.2829    0.0160
  LAT-C9           IN-C15           JC7              CONDUIT           32.5    6.3901    0.0160
  CL-C07           IN-C14           JC7              CONDUIT           56.5    0.2834    0.0160
  CL-C08           JC6              IN-C14           CONDUIT          223.6    0.5323    0.0160
  LAT-C8           IN-C13           JC6              CONDUIT           32.5    4.0057    0.0160
  CL-C09           JC5              JC6              CONDUIT           35.8    0.5301    0.0160
  LAT-C7           IN-C12           JC5              CONDUIT           32.5    3.7873    0.0160
  CL-C10           IN-C11           JC5              CONDUIT           32.6    0.5522    0.0160
  CL-C11           JC4              IN-C11           CONDUIT          247.0    0.2875    0.0160
  LAT-C6           IN-C10           JC4              CONDUIT           32.4    4.6598    0.0160
  CL-C12           JC3              JC4              CONDUIT           35.7    0.2800    0.0160
  LAT-C5           IN-C9            JC3              CONDUIT           32.8    4.8913    0.0160
  CL-C13           IN-C8            JC3              CONDUIT           33.3    0.3002    0.0160
  CL-C14           JC2              IN-C8            CONDUIT          215.5    0.2877    0.0160
  LAT-C4           IN-C7            JC2              CONDUIT           18.5   13.6867    0.0160
  CL-C15           JC1              JC2              CONDUIT          351.9    0.2813    0.0160
  LAT-C3a          IN-C6            JC1              CONDUIT           32.5    8.0829    0.0160
  LAT-C3b          IN-C5            IN-C6            CONDUIT           30.6    2.0292    0.0160
  CL-C16           IN-C4            JC1              CONDUIT           68.5    1.0212    0.0160
  CL-C17           MC1              IN-C4            CONDUIT          283.5    0.1446    0.0160
  LAT-C1           IN-C2            MC1              CONDUIT           34.9    5.0279    0.0160
  LAT-C2           IN-C3            MC1              CONDUIT           46.9    1.7273    0.0160
  CL-C18           IN-C1            MC1              CONDUIT           42.7    0.3516    0.0160
  201              IN_4748          201              CONDUIT           27.8    2.8028    0.0160
  202              IN_4749          203              CONDUIT           27.5    3.0014    0.0160
  203              IN_4337          205              CONDUIT           30.8    0.6502    0.0160
  C204             201              JB_0643          CONDUIT          417.8    0.0471    0.0160
  C205             203              201              CONDUIT          224.3    0.3290    0.0160
  C206             205              203              CONDUIT          235.5    0.2428    0.0160
  LAT-G1c          IN-G2            IN-G3            CONDUIT           44.3    6.0358    0.0160
  Culvert2         PlayaLake44b     PlayaLake44      CONDUIT          220.1    0.4862    0.0160
  Culvert1         PlayaLake44      ConcreteChannel  CONDUIT          472.0    0.1992    0.0160
  1                IN_4337          IN_4749          CONDUIT          235.0    0.3745    0.0100
  2                IN_4749          IN_4748          CONDUIT          224.0    0.6786    0.0100
  3                IN_4748          IN_1121          CONDUIT          417.0    0.4995    0.0100
  4                IN_1121          IN-G12           CONDUIT          602.0   -0.7414    0.0100
  5                JBG1             IN-F79           CONDUIT          150.0   16.3197    0.0100
  6                IN_1120          IN_1121          CONDUIT           80.0    3.9406    0.0100
  7                IN-G12           JBG1             CONDUIT           82.0   -0.0488    0.0100
  C-STREET-2       MC1              IN-C4            CONDUIT          283.0   -0.2615    0.0100
  C-STREET-1       IN-C1            MC1              CONDUIT           42.0    0.7143    0.0100
  C-STREET-3       IN-C4            JC1              CONDUIT           68.0    1.5149    0.0100
  C-STREET-4       JC1              JC2              CONDUIT          352.0    0.3551    0.0100
  C-STREET-5       JC2              IN-C8            CONDUIT          215.0   -2.8151    0.0100
  C-STREET-6       IN-C8            JC3              CONDUIT           35.0    2.2005    0.0100
  C-STREET-7       JC3              JC4              CONDUIT           35.0    0.5714    0.0100
  C-STREET-8       JC4              IN-C11           CONDUIT          247.0    0.1781    0.0100
  C-STREET-9       IN-C11           JC5              CONDUIT           32.0    1.7503    0.0100
  C-STREET-10      JC5              JC6              CONDUIT           36.0    0.6945    0.0100
  C-STREET-11      JC6              IN-C14           CONDUIT          223.0   -2.4581    0.0100
  C-STREET-12      IN-C14           JC7              CONDUIT           56.0    0.8929    0.0100
  C_STREET-13      JC7              JC8              CONDUIT           36.0   -0.5556    0.0100
  C-STREET-14      JC8              IN-C17           CONDUIT          272.0    0.0846    0.0100
  C-STREET-15      IN-C17           JC9              CONDUIT           35.0    1.3430    0.0100
  C-STREET-16      JC9              MH_30            CONDUIT           39.0    0.5128    0.0100
  G-STREET-1       IN-G1            IN-G5            CONDUIT           70.0    0.6143    0.0100
  G-STREET-15      IN-G2            IN-G3            CONDUIT           44.0    1.7025    0.0100
  G-STREET-16      IN-G3            IN-G4            CONDUIT           61.0    0.4262    0.0100
  G-STREET-18      IN-G5            IN-G6            CONDUIT           78.0    1.1026    0.0100
  18               IN-G4            IN-G5            CONDUIT           42.0    0.2857    0.0100
  19               IN-G6            IN-G7            CONDUIT          241.0    0.3071    0.0100
  20               IN-G7            IN-G8            CONDUIT           77.0    0.3247    0.0100
  21               IN-G8            IN-G9            CONDUIT          130.0    0.6769    0.0100
  22               IN-G9            IN-G10           CONDUIT          115.0    0.2957    0.0100
  23               IN-G10           IN-G11           CONDUIT           63.0   -0.4286    0.0100
  24               IN-G11           JBG1             CONDUIT           32.0    1.6565    0.0100
  UNIV-STREET-25   IN_1119          IN_1120          CONDUIT          556.0    0.0881    0.0100
  25               IN_1118          IN_1119          CONDUIT          122.0    0.0008    0.0100
  26               IN-G14           JBG1             CONDUIT          154.0    0.5909    0.0100
  27               IN-G15           IN-G14           CONDUIT           89.0    0.2247    0.0100
  28               IN-G16           IN-G15           CONDUIT          112.0    0.2143    0.0100
  29               IN-G17           IN-G16           CONDUIT          308.0   -0.2922    0.0100
  30               IN-G18           IN-G17           CONDUIT          168.0   -0.2976    0.0100
  31               IN-G19           IN-G18           CONDUIT          152.0   -0.0855    0.0100
  8                JONES-STORE      MH_5339          TYPE2 PUMP  
  
  
  *********************
  Cross Section Summary
  *********************
                                        Full     Full     Hyd.     Max.   No. of     Full
  Conduit          Shape               Depth     Area     Rad.    Width  Barrels     Flow
  ---------------------------------------------------------------------------------------
  RUNOUT           RECT_OPEN            4.00    56.00     2.55    14.00        1  2143.22
  M-0-5-6          RECT_CLOSED          4.00    28.00     1.27     7.00        2   163.49
  M-O-4            RECT_CLOSED          8.00    64.00     2.00     8.00        1   279.95
  M-O-3            RECT_CLOSED          8.00    64.00     2.00     8.00        1   282.38
  CL-F00           RECT_CLOSED          8.00    64.00     2.00     8.00        1   285.47
  M-O-2            RECT_CLOSED          8.00    64.00     2.00     8.00        1   281.89
  LAT-F59a         CIRCULAR             2.50     4.91     0.63     2.50        1    48.91
  LAT-F59b         CIRCULAR             2.00     3.14     0.50     2.00        1    23.72
  LAT-59c          CIRCULAR             2.00     3.14     0.50     2.00        1    10.90
  CL-F01a          RECT_CLOSED          8.00    64.00     2.00     8.00        1   602.57
  CL-F01b          RECT_CLOSED          8.00    64.00     2.00     8.00        1   263.87
  CL-F02           RECT_CLOSED          8.00    64.00     2.00     8.00        1   322.67
  CL-F03a          RECT_CLOSED          8.00    64.00     2.00     8.00        1   440.29
  CL-F03b          RECT_CLOSED          8.00    64.00     2.00     8.00        1   438.59
  CL-F03c          RECT_CLOSED          8.00    64.00     2.00     8.00        1   437.03
  LAT-F57a         CIRCULAR             2.00     3.14     0.50     2.00        1    38.46
  LAT-F57b         CIRCULAR             2.00     3.14     0.50     2.00        1    31.39
  LAT-F58          CIRCULAR             2.00     3.14     0.50     2.00        1    94.58
  CL-F04           RECT_CLOSED          8.00    64.00     2.00     8.00        1   440.71
  LAT-F55          CIRCULAR             3.00     7.07     0.75     3.00        1   120.77
  LAT-F56a         CIRCULAR             4.00    12.57     1.00     4.00        1   159.06
  LAT-F56b         CIRCULAR             4.00    12.57     1.00     4.00        1   120.97
  LAT-F56c         CIRCULAR             4.00    12.57     1.00     4.00        1   260.64
  CL-G08           CIRCULAR             4.00    12.57     1.00     4.00        1   559.02
  CL-G07           CIRCULAR             3.00     7.07     0.75     3.00        1    42.28
  CL-G06a          CIRCULAR             3.00     7.07     0.75     3.00        1    35.22
  CL-G06b          CIRCULAR             3.00     7.07     0.75     3.00        1    35.20
  CL-G05           CIRCULAR             3.00     7.07     0.75     3.00        1    30.88
  CL-G04           CIRCULAR             2.50     4.91     0.63     2.50        1    18.47
  CL-G03           CIRCULAR             2.50     4.91     0.63     2.50        1    19.24
  CL-G02           CIRCULAR             2.50     4.91     0.63     2.50        1    22.46
  CL-G01           CIRCULAR             2.00     3.14     0.50     2.00        1    12.48
  CL-G00           CIRCULAR             2.50     4.91     0.63     2.50        1    22.86
  LAT-G1a          CIRCULAR             2.00     3.14     0.50     2.00        1    13.03
  LAT-G1b          CIRCULAR             2.00     3.14     0.50     2.00        1    12.00
  CL-G09           CIRCULAR             4.00    12.57     1.00     4.00        1    99.63
  LAT-G2           CIRCULAR             2.00     3.14     0.50     2.00        1    83.07
  CL-G10           CIRCULAR             4.00    12.57     1.00     4.00        1    54.38
  LAT-G3           CIRCULAR             3.00     7.07     0.75     3.00        1   110.11
  LAT-G4           CIRCULAR             2.00     3.14     0.50     2.00        1    53.74
  CL-G11           CIRCULAR             3.00     7.07     0.75     3.00        1    24.72
  LAT-G5           CIRCULAR             2.00     3.14     0.50     2.00        1    27.61
  CL-G12           CIRCULAR             3.00     7.07     0.75     3.00        1    24.56
  CL-G13           CIRCULAR             2.00     3.14     0.50     2.00        1     9.54
  CL-G14           CIRCULAR             2.00     3.14     0.50     2.00        1     9.51
  CL-G15           CIRCULAR             2.00     3.14     0.50     2.00        1     9.30
[...]
  CL-C13                  1.00   0.02  0.00  0.00  0.98  0.00  0.00  0.00  0.00  0.00
  CL-C14                  1.00   0.02  0.00  0.00  0.98  0.00  0.00  0.00  0.00  0.00
  LAT-C4                  1.00   0.02  0.00  0.00  0.10  0.02  0.00  0.86  0.02  0.00
  CL-C15                  1.00   0.02  0.00  0.00  0.98  0.00  0.00  0.00  0.03  0.00
  LAT-C3a                 1.00   0.02  0.00  0.00  0.09  0.00  0.00  0.88  0.02  0.00
  LAT-C3b                 1.00   0.02  0.00  0.00  0.69  0.30  0.00  0.00  0.17  0.00
  CL-C16                  1.00   0.02  0.00  0.00  0.98  0.00  0.00  0.00  0.14  0.00
  CL-C17                  1.00   0.02  0.00  0.00  0.06  0.00  0.00  0.92  0.00  0.00
  LAT-C1                  1.00   0.02  0.00  0.00  0.07  0.14  0.00  0.77  0.00  0.00
  LAT-C2                  1.00   0.02  0.32  0.00  0.67  0.00  0.00  0.00  0.80  0.00
  CL-C18                  1.00   0.02  0.00  0.00  0.98  0.00  0.00  0.00  0.57  0.00
  201                     1.00   0.02  0.00  0.00  0.98  0.00  0.00  0.00  0.56  0.00
  202                     1.00   0.02  0.00  0.00  0.98  0.00  0.00  0.00  0.57  0.00
  203                     1.00   0.02  0.00  0.00  0.98  0.00  0.00  0.00  0.00  0.00
  C204                    1.00   0.02  0.00  0.00  0.29  0.00  0.00  0.70  0.00  0.00
  C205                    1.00   0.02  0.00  0.00  0.98  0.00  0.00  0.00  0.30  0.00
  C206                    1.00   0.02  0.00  0.00  0.98  0.00  0.00  0.00  0.19  0.00
  LAT-G1c                 1.00   0.02  0.00  0.00  0.22  0.77  0.00  0.00  0.82  0.00
  Culvert2                1.00   0.00  0.00  0.00  0.98  0.00  0.02  0.00  0.00  0.00
  Culvert1                1.00   0.58  0.00  0.00  0.42  0.00  0.00  0.00  0.00  0.00
  1                       1.00   0.61  0.06  0.00  0.30  0.01  0.00  0.02  0.76  0.00
  2                       1.00   0.55  0.06  0.00  0.37  0.01  0.00  0.00  0.75  0.00
  3                       1.00   0.56  0.00  0.00  0.28  0.00  0.00  0.16  0.02  0.00
  4                       1.00   0.71  0.19  0.00  0.00  0.00  0.10  0.00  0.00  0.00
  5                       1.00   0.89  0.08  0.00  0.03  0.00  0.00  0.00  0.81  0.00
  6                       1.00   0.72  0.10  0.00  0.18  0.00  0.00  0.00  0.74  0.00
  7                       1.00   0.93  0.00  0.00  0.00  0.00  0.07  0.00  0.00  0.00
  C-STREET-2              1.00   1.00  0.00  0.00  0.00  0.00  0.00  0.00  0.00  0.00
  C-STREET-1              1.00   1.00  0.00  0.00  0.00  0.00  0.00  0.00  0.00  0.00
  C-STREET-3              1.00   1.00  0.00  0.00  0.00  0.00  0.00  0.00  0.00  0.00
  C-STREET-4              1.00   1.00  0.00  0.00  0.00  0.00  0.00  0.00  0.00  0.00
  C-STREET-5              1.00   0.02  0.98  0.00  0.00  0.00  0.00  0.00  0.00  0.00
  C-STREET-6              1.00   1.00  0.00  0.00  0.00  0.00  0.00  0.00  0.00  0.00
  C-STREET-7              1.00   1.00  0.00  0.00  0.00  0.00  0.00  0.00  0.00  0.00
  C-STREET-8              1.00   1.00  0.00  0.00  0.00  0.00  0.00  0.00  0.00  0.00
  C-STREET-9              1.00   1.00  0.00  0.00  0.00  0.00  0.00  0.00  0.00  0.00
  C-STREET-10             1.00   1.00  0.00  0.00  0.00  0.00  0.00  0.00  0.00  0.00
  C-STREET-11             1.00   0.02  0.98  0.00  0.00  0.00  0.00  0.00  0.00  0.00
  C-STREET-12             1.00   1.00  0.00  0.00  0.00  0.00  0.00  0.00  0.00  0.00
  C_STREET-13             1.00   1.00  0.00  0.00  0.00  0.00  0.00  0.00  0.00  0.00
  C-STREET-14             1.00   1.00  0.00  0.00  0.00  0.00  0.00  0.00  0.00  0.00
  C-STREET-15             1.00   1.00  0.00  0.00  0.00  0.00  0.00  0.00  0.00  0.00
  C-STREET-16             1.00   1.00  0.00  0.00  0.00  0.00  0.00  0.00  0.00  0.00
  G-STREET-1              1.00   1.00  0.00  0.00  0.00  0.00  0.00  0.00  0.00  0.00
  G-STREET-15             1.00   0.99  0.00  0.00  0.00  0.00  0.00  0.00  0.00  0.00
  G-STREET-16             1.00   0.99  0.00  0.00  0.00  0.00  0.00  0.01  0.00  0.00
  G-STREET-18             1.00   1.00  0.00  0.00  0.00  0.00  0.00  0.00  0.00  0.00
  18                      1.00   1.00  0.00  0.00  0.00  0.00  0.00  0.00  0.00  0.00
  19                      1.00   1.00  0.00  0.00  0.00  0.00  0.00  0.00  0.00  0.00
  20                      1.00   1.00  0.00  0.00  0.00  0.00  0.00  0.00  0.00  0.00
  21                      1.00   1.00  0.00  0.00  0.00  0.00  0.00  0.00  0.00  0.00
  22                      1.00   1.00  0.00  0.00  0.00  0.00  0.00  0.00  0.00  0.00
  23                      1.00   1.00  0.00  0.00  0.00  0.00  0.00  0.00  0.00  0.00
  24                      1.00   0.97  0.03  0.00  0.00  0.00  0.00  0.00  0.00  0.00
  UNIV-STREET-25          1.00   0.82  0.03  0.00  0.15  0.00  0.00  0.00  0.75  0.00
  25                      1.00   0.74  0.00  0.00  0.26  0.00  0.00  0.00  0.00  0.00
  26                      1.00   0.97  0.03  0.00  0.00  0.00  0.00  0.00  0.00  0.00
  27                      1.00   1.00  0.00  0.00  0.00  0.00  0.00  0.00  0.00  0.00
  28                      1.00   1.00  0.00  0.00  0.00  0.00  0.00  0.00  0.00  0.00
  29                      1.00   1.00  0.00  0.00  0.00  0.00  0.00  0.00  0.00  0.00
  30                      1.00   0.96  0.04  0.00  0.00  0.00  0.00  0.00  0.00  0.00
  31                      1.00   0.96  0.00  0.00  0.04  0.00  0.00  0.00  0.00  0.00
  
  
  *************************
  Conduit Surcharge Summary
  *************************
  
  ----------------------------------------------------------------------------
                                                           Hours        Hours 
                         --------- Hours Full --------   Above Full   Capacity
  Conduit                Both Ends  Upstream  Dnstream   Normal Flow   Limited
  ----------------------------------------------------------------------------
  RUNOUT                     52.16     52.16     72.00      0.01         0.01
  M-0-5-6                     3.83      3.83     52.13      3.13         3.26
  M-O-4                       0.01      0.01      0.01      0.68         0.01
  M-O-3                       0.01      0.01      0.01      0.24         0.01
  CL-F00                      1.10      1.55      1.10      0.01         1.10
  M-O-2                       0.01      1.10      0.01      0.62         0.01
  CL-F01a                     1.55      1.87      1.55      0.01         1.55
  CL-F01b                     1.87      2.06      1.87      0.01         1.87
  CL-F02                      2.00      2.00      2.06      0.01         1.72
  CL-F03a                     2.00      2.06      2.00      0.01         2.00
  CL-F03b                     1.97      1.97      2.06      0.01         0.83
  CL-F03c                     1.87      1.87      1.97      0.01         0.17
  LAT-F57a                    2.11      2.11      2.24      0.01         0.01
  LAT-F57b                    1.09      1.09      2.11      0.01         0.01
  LAT-F58                     0.01      0.01      2.11      0.01         0.01
  CL-F04                      1.87      1.90      1.87      0.01         1.87
  LAT-F55                     0.95      0.95      2.27      0.01         0.01
  LAT-F56a                    2.20      3.92      2.20      0.01         2.20
  LAT-F56b                    3.91      3.93      3.92      0.01         3.91
  LAT-F56c                    3.93      3.94      3.93      0.01         3.93
  CL-G08                      0.01      0.01      3.94      0.01         0.01
  CL-G04                      0.01      0.52      0.01      0.35         0.01
  CL-G03                      0.52      0.66      0.52      0.01         0.52
  CL-G02                      0.61      0.61      0.66      0.01         0.48
  CL-G01                      0.62      0.62      0.79      0.01         0.01
  CL-G00                      0.41      0.41      0.50      0.01         0.01
  LAT-G1a                     0.54      0.77      0.54      0.53         0.54
  LAT-G1b                     0.77      0.82      0.77      0.01         0.77
  CL-G09                      0.01      1.87      0.01      1.09         0.01
  LAT-G2                      1.06      1.06      3.62      0.01         0.01
  CL-G10                      1.87      3.16      1.87      2.26         1.87
  LAT-G3                      2.38      2.38      3.16      0.01         0.42
  LAT-G4                      2.57      2.57      3.07      0.01         1.00
  CL-G11                      2.77      2.77      3.16      0.01         0.01
  LAT-G5                      1.53      1.53      3.63      0.01         0.01
  CL-G12                      2.32      2.32      2.77      0.01         0.01
  CL-G13                      2.18      2.18      2.32      0.01         0.01
  CL-G14                      2.02      2.02      2.18      0.01         0.01
  CL-G15                      1.75      1.75      2.02      0.01         0.01
  CL-G16                      1.63      1.63      1.75      0.01         0.01
  CL-G17                      1.55      1.55      1.63      0.01         0.01
  LAT-F54                     0.45      0.45      1.73      0.01         0.01
  CL-F05                      1.61      1.61      1.90      0.01         0.01
  CL-F06                      1.54      1.56      1.61      0.01         1.08
  LAT-F53a                    0.76      0.76      2.30      0.01         0.01
  LAT-F53b                    0.01      0.01      0.76      0.01         0.01
  CL-F07                      1.37      1.37      1.56      0.01         0.01
  LAT-F51                     0.01      0.01      2.06      0.01         0.01
  CL-F08                      1.36      1.42      1.37      0.01         1.33
  LAT-F50                     0.01      0.01      2.11      0.01         0.01
  CL-F09                      1.36      1.40      1.42      0.01         0.72
  LAT-F49b                    0.01      0.01      1.68      0.01         0.01
  CL-F10                      1.27      1.27      1.40      0.01         0.01
  CL-F11                      0.98      0.98      1.27      0.01         0.01
  LAT-F47                     0.01      0.01      1.15      0.01         0.01
  CL-F12                      0.98      1.09      0.98      0.01         0.98
  LAT-F46                     0.01      0.01      1.27      0.01         0.01
  CL-F13                      1.09      1.17      1.09      0.01         1.09
  CL-F14                      1.02      1.02      1.17      0.01         0.01
  LAT-F43a                    0.21      0.21      1.66      0.01         0.01
  CL-F15                      1.02      1.09      1.02      0.01         1.02
  LAT-F42a                    0.01      0.01      1.74      0.01         0.01
  CL-F16                      1.09      1.16      1.09      0.01         1.09
  LAT-F41                     0.61      0.61      1.72      0.01         0.01
  CL-F17                      1.15      1.18      1.16      0.01         0.99
  CL-F18                      1.05      1.05      1.18      0.01         0.01
  LAT-F39B                    0.01      0.01      1.56      0.01         0.01
  CL-F19                      0.95      0.95      1.05      0.01         0.01
  CL-F20                      0.95      1.01      0.95      0.01         0.95
  LAT-F38                     0.01      0.01      1.57      0.01         0.01
  CL-F21                      0.89      0.89      1.01      0.01         0.01
  LAT-F37                     0.01      0.01      1.47      0.01         0.01
  CL-F22                      0.84      0.85      0.89      0.01         0.23
  CL-F23                      0.85      0.97      0.85      0.01         0.85
  LAT-F36                     0.01      0.01      1.06      0.01         0.01
  CL-F24                      0.97      1.03      0.97      0.01         0.97
  LAT-F35a                    1.39      1.39      1.55      0.01         0.01
  LAT-F35b                    0.01      0.01      1.39      0.01         0.01
  CL-F25                      0.68      0.68      0.71      0.01         0.01
  LAT-F34                     1.02      1.02      1.44      0.01         0.05
  CL-F26                      0.68      0.70      0.68      0.01         0.65
  LAT-F32a                    1.14      1.14      1.47      0.01         0.66
  LAT-F33                     0.01      0.01      1.14      0.01         0.01
  LAT-F32b                    1.09      1.15      1.14      0.01         0.89
  CL-F27                      0.91      0.91      1.06      0.01         0.01
  LAT-F30a                    0.88      0.88      1.22      0.01         0.01
  LAT-F30b                    0.87      0.87      0.88      0.01         0.21
  LAT-F30f                    0.01      0.24      0.01      0.01         0.01
  LAT-F30g                    0.01      0.01      0.24      0.01         0.01
  LAT-F31a                    1.07      1.08      1.07      0.01         1.00
  LAT-F31b                    0.96      0.96      1.08      0.01         0.01
  LAT-F31c                    0.96      0.96      0.96      0.01         0.54
  CL-F28                      0.75      0.75      0.91      0.01         0.01
  LAT-F29                     0.46      0.46      1.22      0.01         0.01
  CL-F29                      0.59      0.59      0.75      0.01         0.01
  LAT-F27                     0.01      0.01      1.11      0.01         0.01
  CL-F30                      0.55      0.55      0.59      0.01         0.01
  CL-F31                      0.48      0.48      0.55      0.01         0.01
  LAT-F20                     0.01      0.01      1.05      0.01         0.01
  CL-F32                      0.15      0.15      0.48      0.01         0.01
  LAT-F19                     0.01      0.01      0.85      0.01         0.01
  CL-F33                      0.01      0.01      0.15      0.01         0.01
  LAT-F17                     0.01      0.01      0.78      0.01         0.01
  LAT-F10Ea                   0.01      0.01      0.60      0.01         0.01
  LAT-F14a                    0.01      0.01      0.56      0.01         0.01
  LAT-F10Ca                   0.01      0.01      0.51      0.01         0.01
  LAT-F13a                    0.17      0.17      0.51      0.01         0.01
  LAT-F13b                    0.01      0.01      0.17      0.01         0.01
  LAT-F10A                    0.01      0.01      0.35      0.01         0.01
  LAT-F12a                    0.01      0.01      0.34      0.01         0.01
  LAT-F11a                    0.01      0.01      0.39      0.01         0.01
  LAT-F10                     0.01      0.01      0.47      0.01         0.01
  LAT-F9                      0.01      0.01      0.43      0.01         0.01
  LAT-F1                      0.01     31.48      0.01     29.36         0.01
  C167                        2.38      8.10      2.38      5.57         2.38
  C168                        8.10      9.03      8.10      9.07         8.10
  C169                        9.03      9.06      9.03      9.07         9.03
  C170                        9.05      9.05      9.06      0.01         0.01
  171                         9.05      9.05      9.05      0.01         0.04
  172                         9.08      9.08      9.18      0.01         0.01
  C173                        9.04      9.04      9.08      0.01         0.01
  C174                        8.81      8.81      9.04      0.01         0.01
  C175                        8.63      8.63      9.07      0.01         0.01
  CL-C01                      0.01      0.72      0.01      0.01         0.01
  CL-C02                      0.01      0.01      0.72      0.01         0.01
  LAT-C12a                    0.01      0.01      0.72      0.01         0.01
  LAT-C11                     0.01      0.01      1.48      0.01         0.01
  CL-C04                      0.01      1.19      0.01      0.01         0.01
  CL-C05                      1.19      1.51      1.19      0.01         1.19
  LAT-C10                     0.01      0.01      2.16      0.01         0.01
  CL-C06                      1.51      1.97      1.51      0.01         1.51
  LAT-C9                      0.01      0.01      2.39      0.01         0.01
  CL-C07                      1.97      2.15      1.97      0.01         1.97
  CL-C08                      1.70      1.70      2.15      0.01         0.01
  LAT-C8                      0.99      0.99      2.05      0.01         0.01
  CL-C09                      1.70      1.86      1.70      0.01         1.70
  LAT-C7                      1.34      1.34      2.22      0.01         0.01
  CL-C10                      1.86      1.99      1.86      0.01         1.86
  CL-C11                      1.86      1.86      1.99      0.01         1.02
  LAT-C6                      1.25      1.25      2.14      0.01         0.01
  CL-C12                      1.86      1.97      1.86      0.01         1.86
  LAT-C5                      1.62      1.62      2.24      0.01         0.01
  CL-C13                      1.96      1.97      1.97      0.01         1.22
  CL-C14                      1.72      1.72      1.97      0.01         0.01
  LAT-C4                      0.01      0.01      1.97      0.01         0.01
  CL-C15                      1.24      1.24      1.72      0.01         0.01
  LAT-C3a                     0.01      0.01      1.53      0.01         0.01
  CL-C16                      0.79      0.79      1.24      0.01         0.01
  CL-C17                      0.53      0.53      0.79      0.01         0.01
  LAT-C1                      0.01      0.01      0.77      0.01         0.01
  LAT-C2                      0.01      0.01      0.98      0.01         0.01
  CL-C18                      0.32      0.32      0.53      0.01         0.01
  201                        18.77     18.77     19.70      0.01         0.32
  202                        18.57     18.57     18.98      0.01         0.02
  203                        18.65     18.67     18.72      0.09         0.76
  C204                        9.06     19.70      9.06     15.39         2.65
  C205                       18.94     18.98     19.70      7.14         8.04
  C206                       18.69     18.72     18.98      2.90         5.62
  LAT-G1c                     0.48      0.48      1.20      0.01         0.01
  Culvert2                   18.80     18.80     27.89      2.36         0.01
  Culvert1                    0.01      0.71      0.01      5.50         0.01
  2                           0.01      0.01      4.56      0.01         0.01
  3                           4.56      4.56      7.55      0.01         0.01
  4                           0.01      0.01     58.66      0.01         0.01
  5                           0.01      0.01     58.41      0.01         0.01
  6                           0.01      0.01     58.92      0.01         0.01
  25                          5.84      5.84      5.84      0.01         2.63
  
  
  ***************
  Pumping Summary
  ***************
  
  ---------------------------------------------------------------------------------------------------------
                                                  Min       Avg       Max     Total     Power    % Time Off
                        Percent   Number of      Flow      Flow      Flow    Volume     Usage    Pump Curve
  Pump                 Utilized   Start-Ups       CFS       CFS       CFS  10^6 gal     Kw-hr    Low   High
  ---------------------------------------------------------------------------------------------------------
  8                       40.20           1      0.00      0.91     17.00     0.575     58.15    0.0    0.0
  

  Analysis begun on:  Sun Mar 06 11:51:16 2016
  Analysis ended on:  Sun Mar 06 11:53:29 2016
  Total elapsed time: 00:02:13