  Page 1                                           9/21/2018 12:35:54 PM
  **********************************************************************
  *                             E P A N E T                            *
  *                     Hydraulic and Water Quality                    *
  *                     Analysis for Pipe Networks                     *
  *                           Version 2.0                              *
  **********************************************************************
  
  Input File: Example-10.net
  
  
  
  Link - Node Table:
  ----------------------------------------------------------------------
  Link           Start          End                Length  Diameter
  ID             Node           Node                   ft        in
  ----------------------------------------------------------------------
  1              1              2                    6000        16
  2              2              3                    6000        12
  3              1              4                    3000        10
  4              2              5                    3000         6
  5              3              6                    2000         8
  6              4              5                    6000         6
  7              5              6                    6500         8
  8              4              7                    2500         8
  9              5              8                    2000         8
  10             7              8                    6500         8
  11             9              1                      10        60
  
  Node Results at 0:00 Hrs:
  ----------------------------------------------------------------------
  Node                Demand      Head  Pressure   Quality
  ID                     CFS        ft       psi      mg/L
  ----------------------------------------------------------------------
  1                     0.00     90.00     39.00      0.00
  2                     0.00     85.55     37.07      0.00
  3                     2.00     72.50     31.42      0.00
  4                     0.00     84.99     36.83      0.00
  5                     0.00     76.59     33.19      0.00
  6                     0.00     73.47     31.83      0.00
  7                     0.50     77.50     33.58      0.00
  8                     0.50     75.45     32.69      0.00
  9                    -3.00     90.00      0.00      0.00 Reservoir
  


  Page 2                                                                
  Link Results at 0:00 Hrs:
  ----------------------------------------------------------------------
  Link                  Flow  VelocityUnit Headloss    Status
  ID                     CFS       fps    ft/Kft
  ----------------------------------------------------------------------
  1                     2.07      1.48      0.74      Open
  2                     1.74      2.21      2.17      Open
  3                     0.93      1.71      1.67      Open
  4                     0.33      1.70      2.99      Open
  5                    -0.26      0.76      0.48      Open
  6                     0.22      1.13      1.40      Open
  7                     0.26      0.76      0.48      Open
  8                     0.71      2.04      3.00      Open
  9                     0.29      0.83      0.57      Open
  10                    0.21      0.60      0.31      Open
  11                    3.00      0.15      0.00      Open
  
  Node Results at 1:00 Hrs:
  ----------------------------------------------------------------------
  Node                Demand      Head  Pressure   Quality
  ID                     CFS        ft       psi      mg/L
  ----------------------------------------------------------------------
  1                     0.00     90.00     39.00      9.83
  2                     0.00     85.55     37.07      0.00
  3                     2.00     72.50     31.42      0.00
  4                     0.00     84.99     36.83      8.87
  5                     0.00     76.59     33.19      0.00
  6                     0.00     73.47     31.83      0.00
  7                     0.50     77.50     33.58      7.60
  8                     0.50     75.45     32.69      0.00
  9                    -3.00     90.00      0.00     10.00 Reservoir
  
  Link Results at 1:00 Hrs:
  ----------------------------------------------------------------------
  Link                  Flow  VelocityUnit Headloss    Status
  ID                     CFS       fps    ft/Kft
  ----------------------------------------------------------------------
  1                     2.07      1.48      0.74      Open
  2                     1.74      2.21      2.17      Open
  3                     0.93      1.71      1.67      Open
  4                     0.33      1.70      2.99      Open
  5                    -0.26      0.76      0.48      Open
  6                     0.22      1.13      1.40      Open
  7                     0.26      0.76      0.48      Open
  8                     0.71      2.04      3.00      Open
  9                     0.29      0.83      0.57      Open
  10                    0.21      0.60      0.31      Open
  11                    3.00      0.15      0.00      Open
  


  Page 3                                                                
  Node Results at 2:00 Hrs:
  ----------------------------------------------------------------------
  Node                Demand      Head  Pressure   Quality
  ID                     CFS        ft       psi      mg/L
  ----------------------------------------------------------------------
  1                     0.00     90.00     39.00      9.83
  2                     0.00     85.55     37.07      7.76
  3                     2.00     72.50     31.42      2.75
  4                     0.00     84.99     36.83      8.87
  5                     0.00     76.59     33.19      4.30
  6                     0.00     73.47     31.83      0.00
  7                     0.50     77.50     33.58      8.26
  8                     0.50     75.45     32.69      0.00
  9                    -3.00     90.00      0.00     10.00 Reservoir
  
  Link Results at 2:00 Hrs:
  ----------------------------------------------------------------------
  Link                  Flow  VelocityUnit Headloss    Status
  ID                     CFS       fps    ft/Kft
  ----------------------------------------------------------------------
  1                     2.07      1.48      0.74      Open
  2                     1.74      2.21      2.17      Open
  3                     0.93      1.71      1.67      Open
  4                     0.33      1.70      2.99      Open
  5                    -0.26      0.76      0.48      Open
  6                     0.22      1.13      1.40      Open
  7                     0.26      0.76      0.48      Open
  8                     0.71      2.04      3.00      Open
  9                     0.29      0.83      0.57      Open
  10                    0.21      0.60      0.31      Open
  11                    3.00      0.15      0.00      Open
  
  Node Results at 3:00 Hrs:
  ----------------------------------------------------------------------
  Node                Demand      Head  Pressure   Quality
  ID                     CFS        ft       psi      mg/L
  ----------------------------------------------------------------------
  1                     0.00     90.00     39.00      9.83
  2                     0.00     85.55     37.07      7.76
  3                     2.00     72.50     31.42      5.75
  4                     0.00     84.99     36.83      8.87
  5                     0.00     76.59     33.19      6.80
  6                     0.00     73.47     31.83      0.00
  7                     0.50     77.50     33.58      8.26
  8                     0.50     75.45     32.69      3.42
  9                    -3.00     90.00      0.00     10.00 Reservoir
  


  Page 4                                                                
  Link Results at 3:00 Hrs:
  ----------------------------------------------------------------------
  Link                  Flow  VelocityUnit Headloss    Status
  ID                     CFS       fps    ft/Kft
  ----------------------------------------------------------------------
  1                     2.07      1.48      0.74      Open
  2                     1.74      2.21      2.17      Open
  3                     0.93      1.71      1.67      Open
  4                     0.33      1.70      2.99      Open
  5                    -0.26      0.76      0.48      Open
  6                     0.22      1.13      1.40      Open
  7                     0.26      0.76      0.48      Open
  8                     0.71      2.04      3.00      Open
  9                     0.29      0.83      0.57      Open
  10                    0.21      0.60      0.31      Open
  11                    3.00      0.15      0.00      Open
  
  Node Results at 4:00 Hrs:
  ----------------------------------------------------------------------
  Node                Demand      Head  Pressure   Quality
  ID                     CFS        ft       psi      mg/L
  ----------------------------------------------------------------------
  1                     0.00     90.00     39.00      9.83
  2                     0.00     85.55     37.07      7.76
  3                     2.00     72.50     31.42      5.75
  4                     0.00     84.99     36.83      8.87
  5                     0.00     76.59     33.19      6.80
  6                     0.00     73.47     31.83      0.05
  7                     0.50     77.50     33.58      8.26
  8                     0.50     75.45     32.69      5.13
  9                    -3.00     90.00      0.00     10.00 Reservoir
  
  Link Results at 4:00 Hrs:
  ----------------------------------------------------------------------
  Link                  Flow  VelocityUnit Headloss    Status
  ID                     CFS       fps    ft/Kft
  ----------------------------------------------------------------------
  1                     2.07      1.48      0.74      Open
  2                     1.74      2.21      2.17      Open
  3                     0.93      1.71      1.67      Open
  4                     0.33      1.70      2.99      Open
  5                    -0.26      0.76      0.48      Open
  6                     0.22      1.13      1.40      Open
  7                     0.26      0.76      0.48      Open
  8                     0.71      2.04      3.00      Open
  9                     0.29      0.83      0.57      Open
  10                    0.21      0.60      0.31      Open
  11                    3.00      0.15      0.00      Open
  


  Page 5                                                                
  Node Results at 5:00 Hrs:
  ----------------------------------------------------------------------
  Node                Demand      Head  Pressure   Quality
  ID                     CFS        ft       psi      mg/L
  ----------------------------------------------------------------------
  1                     0.00     90.00     39.00      9.83
  2                     0.00     85.55     37.07      7.76
  3                     2.00     72.50     31.42      6.03
  4                     0.00     84.99     36.83      8.87
  5                     0.00     76.59     33.19      6.80
  6                     0.00     73.47     31.83      4.12
  7                     0.50     77.50     33.58      8.26
  8                     0.50     75.45     32.69      5.27
  9                    -3.00     90.00      0.00     10.00 Reservoir
  
  Link Results at 5:00 Hrs:
  ----------------------------------------------------------------------
  Link                  Flow  VelocityUnit Headloss    Status
  ID                     CFS       fps    ft/Kft
  ----------------------------------------------------------------------
  1                     2.07      1.48      0.74      Open
  2                     1.74      2.21      2.17      Open
  3                     0.93      1.71      1.67      Open
  4                     0.33      1.70      2.99      Open
  5                    -0.26      0.76      0.48      Open
  6                     0.22      1.13      1.40      Open
  7                     0.26      0.76      0.48      Open
  8                     0.71      2.04      3.00      Open
  9                     0.29      0.83      0.57      Open
  10                    0.21      0.60      0.31      Open
  11                    3.00      0.15      0.00      Open
  
  Node Results at 6:00 Hrs:
  ----------------------------------------------------------------------
  Node                Demand      Head  Pressure   Quality
  ID                     CFS        ft       psi      mg/L
  ----------------------------------------------------------------------
  1                     0.00     90.00     39.00      9.83
  2                     0.00     85.55     37.07      7.76
  3                     2.00     72.50     31.42      6.21
  4                     0.00     84.99     36.83      8.87
  5                     0.00     76.59     33.19      6.80
  6                     0.00     73.47     31.83      4.12
  7                     0.50     77.50     33.58      8.26
  8                     0.50     75.45     32.69      5.27
  9                    -3.00     90.00      0.00     10.00 Reservoir
  


  Page 6                                                                
  Link Results at 6:00 Hrs:
  ----------------------------------------------------------------------
  Link                  Flow  VelocityUnit Headloss    Status
  ID                     CFS       fps    ft/Kft
  ----------------------------------------------------------------------
  1                     2.07      1.48      0.74      Open
  2                     1.74      2.21      2.17      Open
  3                     0.93      1.71      1.67      Open
  4                     0.33      1.70      2.99      Open
  5                    -0.26      0.76      0.48      Open
  6                     0.22      1.13      1.40      Open
  7                     0.26      0.76      0.48      Open
  8                     0.71      2.04      3.00      Open
  9                     0.29      0.83      0.57      Open
  10                    0.21      0.60      0.31      Open
  11                    3.00      0.15      0.00      Open
  
  Node Results at 7:00 Hrs:
  ----------------------------------------------------------------------
  Node                Demand      Head  Pressure   Quality
  ID                     CFS        ft       psi      mg/L
  ----------------------------------------------------------------------
  1                     0.00     90.00     39.00      9.83
  2                     0.00     85.55     37.07      7.76
  3                     2.00     72.50     31.42      6.21
  4                     0.00     84.99     36.83      8.87
  5                     0.00     76.59     33.19      6.80
  6                     0.00     73.47     31.83      4.12
  7                     0.50     77.50     33.58      8.26
  8                     0.50     75.45     32.69      5.27
  9                    -3.00     90.00      0.00     10.00 Reservoir
  
  Link Results at 7:00 Hrs:
  ----------------------------------------------------------------------
  Link                  Flow  VelocityUnit Headloss    Status
  ID                     CFS       fps    ft/Kft
  ----------------------------------------------------------------------
  1                     2.07      1.48      0.74      Open
  2                     1.74      2.21      2.17      Open
  3                     0.93      1.71      1.67      Open
  4                     0.33      1.70      2.99      Open
  5                    -0.26      0.76      0.48      Open
  6                     0.22      1.13      1.40      Open
  7                     0.26      0.76      0.48      Open
  8                     0.71      2.04      3.00      Open
  9                     0.29      0.83      0.57      Open
  10                    0.21      0.60      0.31      Open
  11                    3.00      0.15      0.00      Open
  


  Page 7                                                                
  Node Results at 8:00 Hrs:
  ----------------------------------------------------------------------
  Node                Demand      Head  Pressure   Quality
  ID                     CFS        ft       psi      mg/L
  ----------------------------------------------------------------------
  1                     0.00     90.00     39.00      9.83
  2                     0.00     85.55     37.07      7.76
  3                     2.00     72.50     31.42      6.21
  4                     0.00     84.99     36.83      8.87
  5                     0.00     76.59     33.19      6.80
  6                     0.00     73.47     31.83      4.12
  7                     0.50     77.50     33.58      8.26
  8                     0.50     75.45     32.69      5.27
  9                    -3.00     90.00      0.00     10.00 Reservoir
  
  Link Results at 8:00 Hrs:
  ----------------------------------------------------------------------
  Link                  Flow  VelocityUnit Headloss    Status
  ID                     CFS       fps    ft/Kft
  ----------------------------------------------------------------------
  1                     2.07      1.48      0.74      Open
  2                     1.74      2.21      2.17      Open
  3                     0.93      1.71      1.67      Open
  4                     0.33      1.70      2.99      Open
  5                    -0.26      0.76      0.48      Open
  6                     0.22      1.13      1.40      Open
  7                     0.26      0.76      0.48      Open
  8                     0.71      2.04      3.00      Open
  9                     0.29      0.83      0.57      Open
  10                    0.21      0.60      0.31      Open
  11                    3.00      0.15      0.00      Open
  
  Node Results at 9:00 Hrs:
  ----------------------------------------------------------------------
  Node                Demand      Head  Pressure   Quality
  ID                     CFS        ft       psi      mg/L
  ----------------------------------------------------------------------
  1                     0.00     90.00     39.00      9.83
  2                     0.00     85.55     37.07      7.76
  3                     2.00     72.50     31.42      6.21
  4                     0.00     84.99     36.83      8.87
  5                     0.00     76.59     33.19      6.80
  6                     0.00     73.47     31.83      4.12
  7                     0.50     77.50     33.58      8.26
  8                     0.50     75.45     32.69      5.27
  9                    -3.00     90.00      0.00     10.00 Reservoir
  


  Page 8                                                                
  Link Results at 9:00 Hrs:
  ----------------------------------------------------------------------
  Link                  Flow  VelocityUnit Headloss    Status
  ID                     CFS       fps    ft/Kft
  ----------------------------------------------------------------------
  1                     2.07      1.48      0.74      Open
  2                     1.74      2.21      2.17      Open
  3                     0.93      1.71      1.67      Open
  4                     0.33      1.70      2.99      Open
  5                    -0.26      0.76      0.48      Open
  6                     0.22      1.13      1.40      Open
  7                     0.26      0.76      0.48      Open
  8                     0.71      2.04      3.00      Open
  9                     0.29      0.83      0.57      Open
  10                    0.21      0.60      0.31      Open
  11                    3.00      0.15      0.00      Open
  
  Node Results at 10:00 Hrs:
  ----------------------------------------------------------------------
  Node                Demand      Head  Pressure   Quality
  ID                     CFS        ft       psi      mg/L
  ----------------------------------------------------------------------
  1                     0.00     90.00     39.00      9.83
  2                     0.00     85.55     37.07      7.76
  3                     2.00     72.50     31.42      6.21
  4                     0.00     84.99     36.83      8.87
  5                     0.00     76.59     33.19      6.80
  6                     0.00     73.47     31.83      4.12
  7                     0.50     77.50     33.58      8.26
  8                     0.50     75.45     32.69      5.27
  9                    -3.00     90.00      0.00     10.00 Reservoir
  
  Link Results at 10:00 Hrs:
  ----------------------------------------------------------------------
  Link                  Flow  VelocityUnit Headloss    Status
  ID                     CFS       fps    ft/Kft
  ----------------------------------------------------------------------
  1                     2.07      1.48      0.74      Open
  2                     1.74      2.21      2.17      Open
  3                     0.93      1.71      1.67      Open
  4                     0.33      1.70      2.99      Open
  5                    -0.26      0.76      0.48      Open
  6                     0.22      1.13      1.40      Open
  7                     0.26      0.76      0.48      Open
  8                     0.71      2.04      3.00      Open
  9                     0.29      0.83      0.57      Open
  10                    0.21      0.60      0.31      Open
  11                    3.00      0.15      0.00      Open
  


  Page 9                                                                
  Node Results at 11:00 Hrs:
  ----------------------------------------------------------------------
  Node                Demand      Head  Pressure   Quality
  ID                     CFS        ft       psi      mg/L
  ----------------------------------------------------------------------
  1                     0.00     90.00     39.00      9.83
  2                     0.00     85.55     37.07      7.76
  3                     2.00     72.50     31.42      6.21
  4                     0.00     84.99     36.83      8.87
  5                     0.00     76.59     33.19      6.80
  6                     0.00     73.47     31.83      4.12
  7                     0.50     77.50     33.58      8.26
  8                     0.50     75.45     32.69      5.27
  9                    -3.00     90.00      0.00     10.00 Reservoir
  
  Link Results at 11:00 Hrs:
  ----------------------------------------------------------------------
  Link                  Flow  VelocityUnit Headloss    Status
  ID                     CFS       fps    ft/Kft
  ----------------------------------------------------------------------
  1                     2.07      1.48      0.74      Open
  2                     1.74      2.21      2.17      Open
  3                     0.93      1.71      1.67      Open
  4                     0.33      1.70      2.99      Open
  5                    -0.26      0.76      0.48      Open
  6                     0.22      1.13      1.40      Open
  7                     0.26      0.76      0.48      Open
  8                     0.71      2.04      3.00      Open
  9                     0.29      0.83      0.57      Open
  10                    0.21      0.60      0.31      Open
  11                    3.00      0.15      0.00      Open
  
  Node Results at 12:00 Hrs:
  ----------------------------------------------------------------------
  Node                Demand      Head  Pressure   Quality
  ID                     CFS        ft       psi      mg/L
  ----------------------------------------------------------------------
  1                     0.00     90.00     39.00      9.83
  2                     0.00     85.55     37.07      7.76
  3                     2.00     72.50     31.42      6.21
  4                     0.00     84.99     36.83      8.87
  5                     0.00     76.59     33.19      6.80
  6                     0.00     73.47     31.83      4.12
  7                     0.50     77.50     33.58      8.26
  8                     0.50     75.45     32.69      5.27
  9                    -3.00     90.00      0.00     10.00 Reservoir
  


  Page 10                                                               
  Link Results at 12:00 Hrs:
  ----------------------------------------------------------------------
  Link                  Flow  VelocityUnit Headloss    Status
  ID                     CFS       fps    ft/Kft
  ----------------------------------------------------------------------
  1                     2.07      1.48      0.74      Open
  2                     1.74      2.21      2.17      Open
  3                     0.93      1.71      1.67      Open
  4                     0.33      1.70      2.99      Open
  5                    -0.26      0.76      0.48      Open
  6                     0.22      1.13      1.40      Open
  7                     0.26      0.76      0.48      Open
  8                     0.71      2.04      3.00      Open
  9                     0.29      0.83      0.57      Open
  10                    0.21      0.60      0.31      Open
  11                    3.00      0.15      0.00      Open
  
  Node Results at 13:00 Hrs:
  ----------------------------------------------------------------------
  Node                Demand      Head  Pressure   Quality
  ID                     CFS        ft       psi      mg/L
  ----------------------------------------------------------------------
  1                     0.00     90.00     39.00      9.83
  2                     0.00     85.55     37.07      7.76
  3                     2.00     72.50     31.42      6.21
  4                     0.00     84.99     36.83      8.87
  5                     0.00     76.59     33.19      6.80
  6                     0.00     73.47     31.83      4.12
  7                     0.50     77.50     33.58      8.26
  8                     0.50     75.45     32.69      5.27
  9                    -3.00     90.00      0.00     10.00 Reservoir
  
  Link Results at 13:00 Hrs:
  ----------------------------------------------------------------------
  Link                  Flow  VelocityUnit Headloss    Status
  ID                     CFS       fps    ft/Kft
  ----------------------------------------------------------------------
  1                     2.07      1.48      0.74      Open
  2                     1.74      2.21      2.17      Open
  3                     0.93      1.71      1.67      Open
  4                     0.33      1.70      2.99      Open
  5                    -0.26      0.76      0.48      Open
  6                     0.22      1.13      1.40      Open
  7                     0.26      0.76      0.48      Open
  8                     0.71      2.04      3.00      Open
  9                     0.29      0.83      0.57      Open
  10                    0.21      0.60      0.31      Open
  11                    3.00      0.15      0.00      Open
  


  Page 11                                                               
  Node Results at 14:00 Hrs:
  ----------------------------------------------------------------------
  Node                Demand      Head  Pressure   Quality
  ID                     CFS        ft       psi      mg/L
  ----------------------------------------------------------------------
  1                     0.00     90.00     39.00      9.83
  2                     0.00     85.55     37.07      7.76
  3                     2.00     72.50     31.42      6.21
  4                     0.00     84.99     36.83      8.87
  5                     0.00     76.59     33.19      6.80
  6                     0.00     73.47     31.83      4.12
  7                     0.50     77.50     33.58      8.26
  8                     0.50     75.45     32.69      5.27
  9                    -3.00     90.00      0.00     10.00 Reservoir
  
  Link Results at 14:00 Hrs:
  ----------------------------------------------------------------------
  Link                  Flow  VelocityUnit Headloss    Status
  ID                     CFS       fps    ft/Kft
  ----------------------------------------------------------------------
  1                     2.07      1.48      0.74      Open
  2                     1.74      2.21      2.17      Open
  3                     0.93      1.71      1.67      Open
  4                     0.33      1.70      2.99      Open
  5                    -0.26      0.76      0.48      Open
  6                     0.22      1.13      1.40      Open
  7                     0.26      0.76      0.48      Open
  8                     0.71      2.04      3.00      Open
  9                     0.29      0.83      0.57      Open
  10                    0.21      0.60      0.31      Open
  11                    3.00      0.15      0.00      Open
  
  Node Results at 15:00 Hrs:
  ----------------------------------------------------------------------
  Node                Demand      Head  Pressure   Quality
  ID                     CFS        ft       psi      mg/L
  ----------------------------------------------------------------------
  1                     0.00     90.00     39.00      9.83
  2                     0.00     85.55     37.07      7.76
  3                     2.00     72.50     31.42      6.21
  4                     0.00     84.99     36.83      8.87
  5                     0.00     76.59     33.19      6.80
  6                     0.00     73.47     31.83      4.12
  7                     0.50     77.50     33.58      8.26
  8                     0.50     75.45     32.69      5.27
  9                    -3.00     90.00      0.00     10.00 Reservoir
  


  Page 12                                                               
  Link Results at 15:00 Hrs:
  ----------------------------------------------------------------------
  Link                  Flow  VelocityUnit Headloss    Status
  ID                     CFS       fps    ft/Kft
  ----------------------------------------------------------------------
  1                     2.07      1.48      0.74      Open
  2                     1.74      2.21      2.17      Open
  3                     0.93      1.71      1.67      Open
  4                     0.33      1.70      2.99      Open
  5                    -0.26      0.76      0.48      Open
  6                     0.22      1.13      1.40      Open
  7                     0.26      0.76      0.48      Open
  8                     0.71      2.04      3.00      Open
  9                     0.29      0.83      0.57      Open
  10                    0.21      0.60      0.31      Open
  11                    3.00      0.15      0.00      Open
  
  Node Results at 16:00 Hrs:
  ----------------------------------------------------------------------
  Node                Demand      Head  Pressure   Quality
  ID                     CFS        ft       psi      mg/L
  ----------------------------------------------------------------------
  1                     0.00     90.00     39.00      9.83
  2                     0.00     85.55     37.07      7.76
  3                     2.00     72.50     31.42      6.21
  4                     0.00     84.99     36.83      8.87
  5                     0.00     76.59     33.19      6.80
  6                     0.00     73.47     31.83      4.12
  7                     0.50     77.50     33.58      8.26
  8                     0.50     75.45     32.69      5.27
  9                    -3.00     90.00      0.00     10.00 Reservoir
  
  Link Results at 16:00 Hrs:
  ----------------------------------------------------------------------
  Link                  Flow  VelocityUnit Headloss    Status
  ID                     CFS       fps    ft/Kft
  ----------------------------------------------------------------------
  1                     2.07      1.48      0.74      Open
  2                     1.74      2.21      2.17      Open
  3                     0.93      1.71      1.67      Open
  4                     0.33      1.70      2.99      Open
  5                    -0.26      0.76      0.48      Open
  6                     0.22      1.13      1.40      Open
  7                     0.26      0.76      0.48      Open
  8                     0.71      2.04      3.00      Open
  9                     0.29      0.83      0.57      Open
  10                    0.21      0.60      0.31      Open
  11                    3.00      0.15      0.00      Open
  


  Page 13                                                               
  Node Results at 17:00 Hrs:
  ----------------------------------------------------------------------
  Node                Demand      Head  Pressure   Quality
  ID                     CFS        ft       psi      mg/L
  ----------------------------------------------------------------------
  1                     0.00     90.00     39.00      9.83
  2                     0.00     85.55     37.07      7.76
  3                     2.00     72.50     31.42      6.21
  4                     0.00     84.99     36.83      8.87
  5                     0.00     76.59     33.19      6.80
  6                     0.00     73.47     31.83      4.12
  7                     0.50     77.50     33.58      8.26
  8                     0.50     75.45     32.69      5.27
  9                    -3.00     90.00      0.00     10.00 Reservoir
  
  Link Results at 17:00 Hrs:
  ----------------------------------------------------------------------
  Link                  Flow  VelocityUnit Headloss    Status
  ID                     CFS       fps    ft/Kft
  ----------------------------------------------------------------------
  1                     2.07      1.48      0.74      Open
  2                     1.74      2.21      2.17      Open
  3                     0.93      1.71      1.67      Open
  4                     0.33      1.70      2.99      Open
  5                    -0.26      0.76      0.48      Open
  6                     0.22      1.13      1.40      Open
  7                     0.26      0.76      0.48      Open
  8                     0.71      2.04      3.00      Open
  9                     0.29      0.83      0.57      Open
  10                    0.21      0.60      0.31      Open
  11                    3.00      0.15      0.00      Open
  
  Node Results at 18:00 Hrs:
  ----------------------------------------------------------------------
  Node                Demand      Head  Pressure   Quality
  ID                     CFS        ft       psi      mg/L
  ----------------------------------------------------------------------
  1                     0.00     90.00     39.00      9.83
  2                     0.00     85.55     37.07      7.76
  3                     2.00     72.50     31.42      6.21
  4                     0.00     84.99     36.83      8.87
  5                     0.00     76.59     33.19      6.80
  6                     0.00     73.47     31.83      4.12
  7                     0.50     77.50     33.58      8.26
  8                     0.50     75.45     32.69      5.27
  9                    -3.00     90.00      0.00     10.00 Reservoir
  


  Page 14                                                               
  Link Results at 18:00 Hrs:
  ----------------------------------------------------------------------
  Link                  Flow  VelocityUnit Headloss    Status
  ID                     CFS       fps    ft/Kft
  ----------------------------------------------------------------------
  1                     2.07      1.48      0.74      Open
  2                     1.74      2.21      2.17      Open
  3                     0.93      1.71      1.67      Open
  4                     0.33      1.70      2.99      Open
  5                    -0.26      0.76      0.48      Open
  6                     0.22      1.13      1.40      Open
  7                     0.26      0.76      0.48      Open
  8                     0.71      2.04      3.00      Open
  9                     0.29      0.83      0.57      Open
  10                    0.21      0.60      0.31      Open
  11                    3.00      0.15      0.00      Open
  
  Node Results at 19:00 Hrs:
  ----------------------------------------------------------------------
  Node                Demand      Head  Pressure   Quality
  ID                     CFS        ft       psi      mg/L
  ----------------------------------------------------------------------
  1                     0.00     90.00     39.00      9.83
  2                     0.00     85.55     37.07      7.76
  3                     2.00     72.50     31.42      6.21
  4                     0.00     84.99     36.83      8.87
  5                     0.00     76.59     33.19      6.80
  6                     0.00     73.47     31.83      4.12
  7                     0.50     77.50     33.58      8.26
  8                     0.50     75.45     32.69      5.27
  9                    -3.00     90.00      0.00     10.00 Reservoir
  
  Link Results at 19:00 Hrs:
  ----------------------------------------------------------------------
  Link                  Flow  VelocityUnit Headloss    Status
  ID                     CFS       fps    ft/Kft
  ----------------------------------------------------------------------
  1                     2.07      1.48      0.74      Open
  2                     1.74      2.21      2.17      Open
  3                     0.93      1.71      1.67      Open
  4                     0.33      1.70      2.99      Open
  5                    -0.26      0.76      0.48      Open
  6                     0.22      1.13      1.40      Open
  7                     0.26      0.76      0.48      Open
  8                     0.71      2.04      3.00      Open
  9                     0.29      0.83      0.57      Open
  10                    0.21      0.60      0.31      Open
  11                    3.00      0.15      0.00      Open
  


  Page 15                                                               
  Node Results at 20:00 Hrs:
  ----------------------------------------------------------------------
  Node                Demand      Head  Pressure   Quality
  ID                     CFS        ft       psi      mg/L
  ----------------------------------------------------------------------
  1                     0.00     90.00     39.00      9.83
  2                     0.00     85.55     37.07      7.76
  3                     2.00     72.50     31.42      6.21
  4                     0.00     84.99     36.83      8.87
  5                     0.00     76.59     33.19      6.80
  6                     0.00     73.47     31.83      4.12
  7                     0.50     77.50     33.58      8.26
  8                     0.50     75.45     32.69      5.27
  9                    -3.00     90.00      0.00     10.00 Reservoir
  
  Link Results at 20:00 Hrs:
  ----------------------------------------------------------------------
  Link                  Flow  VelocityUnit Headloss    Status
  ID                     CFS       fps    ft/Kft
  ----------------------------------------------------------------------
  1                     2.07      1.48      0.74      Open
  2                     1.74      2.21      2.17      Open
  3                     0.93      1.71      1.67      Open
  4                     0.33      1.70      2.99      Open
  5                    -0.26      0.76      0.48      Open
  6                     0.22      1.13      1.40      Open
  7                     0.26      0.76      0.48      Open
  8                     0.71      2.04      3.00      Open
  9                     0.29      0.83      0.57      Open
  10                    0.21      0.60      0.31      Open
  11                    3.00      0.15      0.00      Open
  
  Node Results at 21:00 Hrs:
  ----------------------------------------------------------------------
  Node                Demand      Head  Pressure   Quality
  ID                     CFS        ft       psi      mg/L
  ----------------------------------------------------------------------
  1                     0.00     90.00     39.00      9.83
  2                     0.00     85.55     37.07      7.76
  3                     2.00     72.50     31.42      6.21
  4                     0.00     84.99     36.83      8.87
  5                     0.00     76.59     33.19      6.80
  6                     0.00     73.47     31.83      4.12
  7                     0.50     77.50     33.58      8.26
  8                     0.50     75.45     32.69      5.27
  9                    -3.00     90.00      0.00     10.00 Reservoir
  


  Page 16                                                               
  Link Results at 21:00 Hrs:
  ----------------------------------------------------------------------
  Link                  Flow  VelocityUnit Headloss    Status
  ID                     CFS       fps    ft/Kft
  ----------------------------------------------------------------------
  1                     2.07      1.48      0.74      Open
  2                     1.74      2.21      2.17      Open
  3                     0.93      1.71      1.67      Open
  4                     0.33      1.70      2.99      Open
  5                    -0.26      0.76      0.48      Open
  6                     0.22      1.13      1.40      Open
  7                     0.26      0.76      0.48      Open
  8                     0.71      2.04      3.00      Open
  9                     0.29      0.83      0.57      Open
  10                    0.21      0.60      0.31      Open
  11                    3.00      0.15      0.00      Open
  
  Node Results at 22:00 Hrs:
  ----------------------------------------------------------------------
  Node                Demand      Head  Pressure   Quality
  ID                     CFS        ft       psi      mg/L
  ----------------------------------------------------------------------
  1                     0.00     90.00     39.00      9.83
  2                     0.00     85.55     37.07      7.76
  3                     2.00     72.50     31.42      6.21
  4                     0.00     84.99     36.83      8.87
  5                     0.00     76.59     33.19      6.80
  6                     0.00     73.47     31.83      4.12
  7                     0.50     77.50     33.58      8.26
  8                     0.50     75.45     32.69      5.27
  9                    -3.00     90.00      0.00     10.00 Reservoir
  
  Link Results at 22:00 Hrs:
  ----------------------------------------------------------------------
  Link                  Flow  VelocityUnit Headloss    Status
  ID                     CFS       fps    ft/Kft
  ----------------------------------------------------------------------
  1                     2.07      1.48      0.74      Open
  2                     1.74      2.21      2.17      Open
  3                     0.93      1.71      1.67      Open
  4                     0.33      1.70      2.99      Open
  5                    -0.26      0.76      0.48      Open
  6                     0.22      1.13      1.40      Open
  7                     0.26      0.76      0.48      Open
  8                     0.71      2.04      3.00      Open
  9                     0.29      0.83      0.57      Open
  10                    0.21      0.60      0.31      Open
  11                    3.00      0.15      0.00      Open
  


  Page 17                                                               
  Node Results at 23:00 Hrs:
  ----------------------------------------------------------------------
  Node                Demand      Head  Pressure   Quality
  ID                     CFS        ft       psi      mg/L
  ----------------------------------------------------------------------
  1                     0.00     90.00     39.00      9.83
  2                     0.00     85.55     37.07      7.76
  3                     2.00     72.50     31.42      6.21
  4                     0.00     84.99     36.83      8.87
  5                     0.00     76.59     33.19      6.80
  6                     0.00     73.47     31.83      4.12
  7                     0.50     77.50     33.58      8.26
  8                     0.50     75.45     32.69      5.27
  9                    -3.00     90.00      0.00     10.00 Reservoir
  
  Link Results at 23:00 Hrs:
  ----------------------------------------------------------------------
  Link                  Flow  VelocityUnit Headloss    Status
  ID                     CFS       fps    ft/Kft
  ----------------------------------------------------------------------
  1                     2.07      1.48      0.74      Open
  2                     1.74      2.21      2.17      Open
  3                     0.93      1.71      1.67      Open
  4                     0.33      1.70      2.99      Open
  5                    -0.26      0.76      0.48      Open
  6                     0.22      1.13      1.40      Open
  7                     0.26      0.76      0.48      Open
  8                     0.71      2.04      3.00      Open
  9                     0.29      0.83      0.57      Open
  10                    0.21      0.60      0.31      Open
  11                    3.00      0.15      0.00      Open
  
  Node Results at 24:00 Hrs:
  ----------------------------------------------------------------------
  Node                Demand      Head  Pressure   Quality
  ID                     CFS        ft       psi      mg/L
  ----------------------------------------------------------------------
  1                     0.00     90.00     39.00      9.83
  2                     0.00     85.55     37.07      7.76
  3                     2.00     72.50     31.42      6.21
  4                     0.00     84.99     36.83      8.87
  5                     0.00     76.59     33.19      6.80
  6                     0.00     73.47     31.83      4.12
  7                     0.50     77.50     33.58      8.26
  8                     0.50     75.45     32.69      5.27
  9                    -3.00     90.00      0.00     10.00 Reservoir
  


  Page 18                                                               
  Link Results at 24:00 Hrs:
  ----------------------------------------------------------------------
  Link                  Flow  VelocityUnit Headloss    Status
  ID                     CFS       fps    ft/Kft
  ----------------------------------------------------------------------
  1                     2.07      1.48      0.74      Open
  2                     1.74      2.21      2.17      Open
  3                     0.93      1.71      1.67      Open
  4                     0.33      1.70      2.99      Open
  5                    -0.26      0.76      0.48      Open
  6                     0.22      1.13      1.40      Open
  7                     0.26      0.76      0.48      Open
  8                     0.71      2.04      3.00      Open
  9                     0.29      0.83      0.57      Open
  10                    0.21      0.60      0.31      Open
  11                    3.00      0.15      0.00      Open
  
