  Page 1                                           2/16/2010 12:44:56 PM
  **********************************************************************
  *                             E P A N E T                            *
  *                     Hydraulic and Water Quality                    *
  *                     Analysis for Pipe Networks                     *
  *                           Version 2.0                              *
  **********************************************************************
  
  Input File: 
  
  
  
  Link - Node Table:
  ----------------------------------------------------------------------
  Link           Start          End                Length  Diameter
  ID             Node           Node                   ft        in
  ----------------------------------------------------------------------
  1              2              3                    1000        12
  2              3              4                    1000        12
  3              2              5                    1000        12
  4              3              6                    1000        12
  5              5              6                    1000        12
  6              6              4                    1000        12
  7              1              2                    1000        12
  
  Node Results:
  ----------------------------------------------------------------------
  Node                Demand      Head  Pressure   Quality
  ID                     CFS        ft       psi          
  ----------------------------------------------------------------------
  2                     0.00     76.94     33.34      0.00
  3                     0.00     75.55     32.74      0.00
  4                     3.00     74.51     32.28      0.00
  5                     0.00     76.23     33.03      0.00
  6                     0.00     75.51     32.72      0.00
  1                    -3.00    100.00      0.00      0.00 Reservoir
  
  Link Results:
  ----------------------------------------------------------------------
  Link                  Flow  VelocityUnit Headloss    Status
  ID                     CFS       fps    ft/Kft
  ----------------------------------------------------------------------
  1                     1.76      2.25      1.39      Open
  2                     1.51      1.93      1.04      Open
  3                     1.24      1.57      0.71      Open
  4                     0.25      0.32      0.04      Open
  5                     1.24      1.57      0.71      Open
  6                     1.49      1.89      1.01      Open
  7                     3.00      3.82     23.06      Open
  
