
  EPA STORM WATER MANAGEMENT MODEL - VERSION 5.1 (Build 5.1.015)
  --------------------------------------------------------------

  WARNING 01: wet weather time step reduced to recording interval for Rain Gage 1
  WARNING 04: minimum elevation drop used for Conduit 1
  WARNING 04: minimum elevation drop used for Conduit 2
  WARNING 04: minimum elevation drop used for Conduit 3
  WARNING 04: minimum elevation drop used for Conduit 5
  WARNING 04: minimum elevation drop used for Conduit 7
  WARNING 04: minimum elevation drop used for Conduit 8
  WARNING 04: minimum elevation drop used for Conduit 11
  WARNING 04: minimum elevation drop used for Conduit 12
  WARNING 04: minimum elevation drop used for Conduit 13
  WARNING 04: minimum elevation drop used for Conduit 14
  WARNING 04: minimum elevation drop used for Conduit 15
  WARNING 04: minimum elevation drop used for Conduit 17
  WARNING 04: minimum elevation drop used for Conduit 19
  WARNING 04: minimum elevation drop used for Conduit 20
  WARNING 04: minimum elevation drop used for Conduit 23
  WARNING 04: minimum elevation drop used for Conduit 46
  WARNING 04: minimum elevation drop used for Conduit 47
  WARNING 04: minimum elevation drop used for Conduit 48
  WARNING 04: minimum elevation drop used for Conduit 55
  WARNING 04: minimum elevation drop used for Conduit 58
  WARNING 04: minimum elevation drop used for Conduit 59
  WARNING 04: minimum elevation drop used for Conduit 67
  WARNING 04: minimum elevation drop used for Conduit 68
  WARNING 04: minimum elevation drop used for Conduit 71
  WARNING 04: minimum elevation drop used for Conduit 76
  WARNING 04: minimum elevation drop used for Conduit 78
  WARNING 04: minimum elevation drop used for Conduit 79
  WARNING 04: minimum elevation drop used for Conduit 80
  WARNING 04: minimum elevation drop used for Conduit 82
  WARNING 04: minimum elevation drop used for Conduit 83
  WARNING 04: minimum elevation drop used for Conduit 84
  WARNING 04: minimum elevation drop used for Conduit 86
  WARNING 04: minimum elevation drop used for Conduit 88
  WARNING 04: minimum elevation drop used for Conduit 89
  WARNING 04: minimum elevation drop used for Conduit 90
  WARNING 04: minimum elevation drop used for Conduit 92
  WARNING 04: minimum elevation drop used for Conduit 95
  WARNING 04: minimum elevation drop used for Conduit 96
  WARNING 04: minimum elevation drop used for Conduit 97
  WARNING 04: minimum elevation drop used for Conduit 98
  WARNING 04: minimum elevation drop used for Conduit 99
  WARNING 04: minimum elevation drop used for Conduit 104
  WARNING 04: minimum elevation drop used for Conduit 106
  WARNING 04: minimum elevation drop used for Conduit 107
  WARNING 04: minimum elevation drop used for Conduit 109
  WARNING 04: minimum elevation drop used for Conduit 111
  WARNING 04: minimum elevation drop used for Conduit 114
  WARNING 04: minimum elevation drop used for Conduit 115
  WARNING 04: minimum elevation drop used for Conduit 121
  WARNING 04: minimum elevation drop used for Conduit 122
  WARNING 04: minimum elevation drop used for Conduit 124
  WARNING 04: minimum elevation drop used for Conduit 126
  WARNING 04: minimum elevation drop used for Conduit 127
  WARNING 04: minimum elevation drop used for Conduit 129
  WARNING 04: minimum elevation drop used for Conduit 130
  WARNING 04: minimum elevation drop used for Conduit 131
  WARNING 04: minimum elevation drop used for Conduit 132
  WARNING 04: minimum elevation drop used for Conduit 136
  WARNING 04: minimum elevation drop used for Conduit 138
  WARNING 04: minimum elevation drop used for Conduit 140
  WARNING 04: minimum elevation drop used for Conduit 143
  WARNING 04: minimum elevation drop used for Conduit 145
  WARNING 04: minimum elevation drop used for Conduit 146
  WARNING 04: minimum elevation drop used for Conduit 147
  WARNING 04: minimum elevation drop used for Conduit 149
  WARNING 04: minimum elevation drop used for Conduit 152
  WARNING 04: minimum elevation drop used for Conduit 153
  WARNING 04: minimum elevation drop used for Conduit 154
  
  *********************************************************
  NOTE: The summary statistics displayed in this report are
  based on results found at every computational time step,  
  not just on results from each reporting time step.
  *********************************************************
  
  ****************
  Analysis Options
  ****************
  Flow Units ............... CFS
  Process Models:
    Rainfall/Runoff ........ YES
    RDII ................... NO
    Snowmelt ............... NO
    Groundwater ............ NO
    Flow Routing ........... YES
    Ponding Allowed ........ YES
    Water Quality .......... NO
  Infiltration Method ...... GREEN_AMPT
  Flow Routing Method ...... DYNWAVE
  Surcharge Method ......... EXTRAN
  Starting Date ............ 01/01/2008 00:00:00
  Ending Date .............. 01/17/2008 00:00:00
  Antecedent Dry Days ...... 0.0
  Report Time Step ......... 00:15:00
  Wet Time Step ............ 00:05:00
  Dry Time Step ............ 00:15:00
  Routing Time Step ........ 10.00 sec
  Variable Time Step ....... YES
  Maximum Trials ........... 8
  Number of Threads ........ 1
  Head Tolerance ........... 0.005000 ft
  
  
  **************************        Volume         Depth
  Runoff Quantity Continuity     acre-feet        inches
  **************************     ---------       -------
  Total Precipitation ......       272.910        20.558
  Evaporation Loss .........         0.000         0.000
  Infiltration Loss ........        37.878         2.853
  Surface Runoff ...........       237.690        17.905
  Final Storage ............         0.000         0.000
  Continuity Error (%) .....        -0.974
  
  
  **************************        Volume        Volume
  Flow Routing Continuity        acre-feet      10^6 gal
  **************************     ---------     ---------
  Dry Weather Inflow .......         0.000         0.000
  Wet Weather Inflow .......       237.453        77.378
  Groundwater Inflow .......         0.000         0.000
  RDII Inflow ..............         0.000         0.000
  External Inflow ..........         0.000         0.000
  External Outflow .........       234.374        76.374
  Flooding Loss ............         0.000         0.000
  Evaporation Loss .........         0.000         0.000
  Exfiltration Loss ........         0.000         0.000
  Initial Stored Volume ....         0.000         0.000
  Final Stored Volume ......         2.591         0.844
  Continuity Error (%) .....         0.206
  
  
  *************************
  Highest Continuity Errors
  *************************
  Node 43 (6.63%)
  Node 42 (-6.11%)
  Node 44 (-4.60%)
  Node 37 (-4.42%)
  Node 62 (-4.25%)
  
  
  ***************************
  Time-Step Critical Elements
  ***************************
  None
  
  
  ********************************
  Highest Flow Instability Indexes
  ********************************
  Link 191 (4)
  
  
  *************************
  Routing Time Step Summary
  *************************
  Minimum Time Step           :     0.89 sec
  Average Time Step           :     9.95 sec
  Maximum Time Step           :    10.00 sec
  Percent in Steady State     :     0.03
  Average Iterations per Step :     2.02
  Percent Not Converging      :     0.24
  Time Step Frequencies       :
     10.000 -  5.493 sec      :    99.77 %
      5.493 -  3.017 sec      :     0.19 %
      3.017 -  1.657 sec      :     0.03 %
      1.657 -  0.910 sec      :     0.01 %
      0.910 -  0.500 sec      :     0.00 %
  
  
  ***************************
  Subcatchment Runoff Summary
  ***************************
  
  ------------------------------------------------------------------------------------------------------------------------------
                            Total      Total      Total      Total     Imperv       Perv      Total       Total     Peak  Runoff
                           Precip      Runon       Evap      Infil     Runoff     Runoff     Runoff      Runoff   Runoff   Coeff
  Subcatchment                 in         in         in         in         in         in         in    10^6 gal      CFS
  ------------------------------------------------------------------------------------------------------------------------------
  91                        20.56       0.00       0.00       2.85       6.19      11.72      17.91        0.86    92.51   0.871
  92                        20.56       0.00       0.00       2.85       6.19      11.72      17.91        0.86    92.51   0.871
  93                        20.56       0.00       0.00       2.85       6.19      11.72      17.91        0.86    92.51   0.871
  94                        20.56       0.00       0.00       2.85       6.19      11.72      17.91        0.86    92.51   0.871
  95                        20.56       0.00       0.00       2.85       6.19      11.72      17.91        0.86    92.51   0.871
  96                        20.56       0.00       0.00       2.85       6.19      11.72      17.91        0.86    92.51   0.871
  97                        20.56       0.00       0.00       2.85       6.19      11.72      17.91        0.86    92.51   0.871
  98                        20.56       0.00       0.00       2.85       6.19      11.72      17.91        0.86    92.51   0.871
  99                        20.56       0.00       0.00       2.85       6.19      11.72      17.91        0.86    92.51   0.871
  100                       20.56       0.00       0.00       2.85       6.19      11.72      17.91        0.86    92.51   0.871
  101                       20.56       0.00       0.00       2.85       6.19      11.72      17.91        0.86    92.51   0.871
  102                       20.56       0.00       0.00       2.85       6.19      11.72      17.91        0.86    92.51   0.871
  103                       20.56       0.00       0.00       2.85       6.19      11.72      17.91        0.86    92.51   0.871
  104                       20.56       0.00       0.00       2.85       6.19      11.72      17.91        0.86    92.51   0.871
  105                       20.56       0.00       0.00       2.85       6.19      11.72      17.91        0.86    92.51   0.871
  106                       20.56       0.00       0.00       2.85       6.19      11.72      17.91        0.86    92.51   0.871
  107                       20.56       0.00       0.00       2.85       6.19      11.72      17.91        0.86    92.51   0.871
  108                       20.56       0.00       0.00       2.85       6.19      11.72      17.91        0.86    92.51   0.871
  109                       20.56       0.00       0.00       2.85       6.19      11.72      17.91        0.86    92.51   0.871
  110                       20.56       0.00       0.00       2.85       6.19      11.72      17.91        0.86    92.51   0.871
  111                       20.56       0.00       0.00       2.85       6.19      11.72      17.91        0.86    92.51   0.871
  112                       20.56       0.00       0.00       2.85       6.19      11.72      17.91        0.86    92.51   0.871
  113                       20.56       0.00       0.00       2.85       6.19      11.72      17.91        0.86    92.51   0.871
  114                       20.56       0.00       0.00       2.85       6.19      11.72      17.91        0.86    92.51   0.871
  115                       20.56       0.00       0.00       2.85       6.19      11.72      17.91        0.86    92.51   0.871
  116                       20.56       0.00       0.00       2.85       6.19      11.72      17.91        0.86    92.51   0.871
  117                       20.56       0.00       0.00       2.85       6.19      11.72      17.91        0.86    92.51   0.871
  118                       20.56       0.00       0.00       2.85       6.19      11.72      17.91        0.86    92.51   0.871
  119                       20.56       0.00       0.00       2.85       6.19      11.72      17.91        0.86    92.51   0.871
  120                       20.56       0.00       0.00       2.85       6.19      11.72      17.91        0.86    92.51   0.871
  121                       20.56       0.00       0.00       2.85       6.19      11.72      17.91        0.86    92.51   0.871
  122                       20.56       0.00       0.00       2.85       6.19      11.72      17.91        0.86    92.51   0.871
  123                       20.56       0.00       0.00       2.85       6.19      11.72      17.91        0.86    92.51   0.871
  124                       20.56       0.00       0.00       2.85       6.19      11.72      17.91        0.86    92.51   0.871
  125                       20.56       0.00       0.00       2.85       6.19      11.72      17.91        0.86    92.51   0.871
  126                       20.56       0.00       0.00       2.85       6.19      11.72      17.91        0.86    92.51   0.871
  127                       20.56       0.00       0.00       2.85       6.19      11.72      17.91        0.86    92.51   0.871
  128                       20.56       0.00       0.00       2.85       6.19      11.72      17.91        0.86    92.51   0.871
  129                       20.56       0.00       0.00       2.85       6.19      11.72      17.91        0.86    92.51   0.871
  130                       20.56       0.00       0.00       2.85       6.19      11.72      17.91        0.86    92.51   0.871
  131                       20.56       0.00       0.00       2.85       6.19      11.72      17.91        0.86    92.51   0.871
  132                       20.56       0.00       0.00       2.85       6.19      11.72      17.91        0.86    92.51   0.871
  133                       20.56       0.00       0.00       2.85       6.19      11.72      17.91        0.86    92.51   0.871
  134                       20.56       0.00       0.00       2.85       6.19      11.72      17.91        0.86    92.51   0.871
  135                       20.56       0.00       0.00       2.85       6.19      11.72      17.91        0.86    92.51   0.871
  136                       20.56       0.00       0.00       2.85       6.19      11.72      17.91        0.86    92.51   0.871
  137                       20.56       0.00       0.00       2.85       6.19      11.72      17.91        0.86    92.51   0.871
  138                       20.56       0.00       0.00       2.85       6.19      11.72      17.91        0.86    92.51   0.871
  139                       20.56       0.00       0.00       2.85       6.19      11.72      17.91        0.86    92.51   0.871
  140                       20.56       0.00       0.00       2.85       6.19      11.72      17.91        0.86    92.51   0.871
  141                       20.56       0.00       0.00       2.85       6.19      11.72      17.91        0.86    92.51   0.871
  142                       20.56       0.00       0.00       2.85       6.19      11.72      17.91        0.86    92.51   0.871
  143                       20.56       0.00       0.00       2.85       6.19      11.72      17.91        0.86    92.51   0.871
  144                       20.56       0.00       0.00       2.85       6.19      11.72      17.91        0.86    92.51   0.871
  145                       20.56       0.00       0.00       2.85       6.19      11.72      17.91        0.86    92.51   0.871
  146                       20.56       0.00       0.00       2.85       6.19      11.72      17.91        0.86    92.51   0.871
  147                       20.56       0.00       0.00       2.85       6.19      11.72      17.91        0.86    92.51   0.871
  148                       20.56       0.00       0.00       2.85       6.19      11.72      17.91        0.86    92.51   0.871
  149                       20.56       0.00       0.00       2.85       6.19      11.72      17.91        0.86    92.51   0.871
  150                       20.56       0.00       0.00       2.85       6.19      11.72      17.91        0.86    92.51   0.871
  151                       20.56       0.00       0.00       2.85       6.19      11.72      17.91        0.86    92.51   0.871
  152                       20.56       0.00       0.00       2.85       6.19      11.72      17.91        0.86    92.51   0.871
  153                       20.56       0.00       0.00       2.85       6.19      11.72      17.91        0.86    92.51   0.871
  154                       20.56       0.00       0.00       2.85       6.19      11.72      17.91        0.86    92.51   0.871
  155                       20.56       0.00       0.00       2.85       6.19      11.72      17.91        0.86    92.51   0.871
  156                       20.56       0.00       0.00       2.85       6.19      11.72      17.91        0.86    92.51   0.871
  157                       20.56       0.00       0.00       2.85       6.19      11.72      17.91        0.86    92.51   0.871
  158                       20.56       0.00       0.00       2.85       6.19      11.72      17.91        0.86    92.51   0.871
  159                       20.56       0.00       0.00       2.85       6.19      11.72      17.91        0.86    92.51   0.871
  160                       20.56       0.00       0.00       2.85       6.19      11.72      17.91        0.86    92.51   0.871
  161                       20.56       0.00       0.00       2.85       6.19      11.72      17.91        0.86    92.51   0.871
  162                       20.56       0.00       0.00       2.85       6.19      11.72      17.91        0.86    92.51   0.871
  163                       20.56       0.00       0.00       2.85       6.19      11.72      17.91        0.86    92.51   0.871
  164                       20.56       0.00       0.00       2.85       6.19      11.72      17.91        0.86    92.51   0.871
  165                       20.56       0.00       0.00       2.85       6.19      11.72      17.91        0.86    92.51   0.871
  166                       20.56       0.00       0.00       2.85       6.19      11.72      17.91        0.86    92.51   0.871
  167                       20.56       0.00       0.00       2.85       6.19      11.72      17.91        0.86    92.51   0.871
  168                       20.56       0.00       0.00       2.85       6.19      11.72      17.91        0.86    92.51   0.871
  169                       20.56       0.00       0.00       2.85       6.19      11.72      17.91        0.86    92.51   0.871
  170                       20.56       0.00       0.00       2.85       6.19      11.72      17.91        0.86    92.51   0.871
  171                       20.56       0.00       0.00       2.85       6.19      11.72      17.91        0.86    92.51   0.871
  172                       20.56       0.00       0.00       2.85       6.19      11.72      17.91        0.86    92.51   0.871
  173                       20.56       0.00       0.00       2.85       6.19      11.72      17.91        0.86    92.51   0.871
  174                       20.56       0.00       0.00       2.85       6.19      11.72      17.91        0.86    92.51   0.871
  175                       20.56       0.00       0.00       2.85       6.19      11.72      17.91        0.86    92.51   0.871
  176                       20.56       0.00       0.00       2.85       6.19      11.72      17.91        0.86    92.51   0.871
  177                       20.56       0.00       0.00       2.85       6.19      11.72      17.91        0.86    92.51   0.871
  178                       20.56       0.00       0.00       2.85       6.19      11.72      17.91        0.86    92.51   0.871
  179                       20.56       0.00       0.00       2.85       6.19      11.72      17.91        0.86    92.51   0.871
  180                       20.56       0.00       0.00       2.85       6.19      11.72      17.91        0.86    92.51   0.871
  
  
  ******************
  Node Depth Summary
  ******************
  
  ---------------------------------------------------------------------------------
                                 Average  Maximum  Maximum  Time of Max    Reported
                                   Depth    Depth      HGL   Occurrence   Max Depth
  Node                 Type         Feet     Feet     Feet  days hr:min        Feet
  ---------------------------------------------------------------------------------
  183                  JUNCTION     0.07     5.72   121.22     0  03:52        5.21
  185                  JUNCTION     0.06     4.59   114.59     0  03:53        4.28
  186                  JUNCTION     0.07     5.90   105.90     0  03:58        5.83
  194                  JUNCTION     6.29    10.61   140.61     0  03:20       10.35
  195                  JUNCTION     5.30    10.62   141.62     0  03:16        9.49
  196                  JUNCTION     4.30    10.52   142.52     0  03:16        8.65
  197                  JUNCTION     3.31    10.42   143.42     0  03:16        7.75
  198                  JUNCTION     2.32    11.50   145.50     0  03:16        6.71
  199                  JUNCTION     1.33     7.05   142.05     0  03:16        5.99
  200                  JUNCTION     0.34     6.58   142.58     0  03:15        4.72
  201                  JUNCTION     0.05     6.76   143.76     0  03:15        5.00
  202                  JUNCTION     0.03     6.07   144.07     0  03:15        4.36
  204                  JUNCTION     0.12     9.69   132.69     0  03:07        8.88
  205                  JUNCTION     0.13    10.57   134.57     0  03:07       10.21
  209                  JUNCTION     0.01     3.89   133.89     0  03:15        3.85
  210                  JUNCTION     0.02     3.89   134.89     0  03:15        3.86
  211                  JUNCTION     0.01     3.52   135.52     0  03:15        3.52
  212                  JUNCTION     0.01     3.02   136.02     0  03:14        3.01
  213                  JUNCTION     0.01     2.78   136.78     0  03:14        2.77
  214                  JUNCTION     0.01     2.26   137.26     0  03:14        2.24
  215                  JUNCTION     0.01     1.56   137.56     0  03:13        1.51
  216                  JUNCTION     0.00     0.91   137.91     0  03:14        0.86
  217                  JUNCTION     0.14    10.57   135.57     0  03:07       10.48
  218                  JUNCTION     0.13    10.20   136.20     0  03:26       10.13
  219                  JUNCTION     0.12     9.47   136.47     0  03:26        9.41
  220                  JUNCTION     0.11     8.54   136.54     0  03:22        8.47
  184                  OUTFALL      0.06     7.71   102.71     0  03:58        5.04
  1                    STORAGE      0.04     1.25   150.50     0  03:12        1.22
  2                    STORAGE      0.03     1.24   150.49     0  03:13        1.21
  3                    STORAGE      0.01     0.97   150.22     0  03:12        0.92
  4                    STORAGE      0.07     1.75   147.75     0  03:23        1.70
  5                    STORAGE      0.07     1.76   147.76     0  03:22        1.70
  6                    STORAGE      0.01     0.87   150.12     0  03:12        0.84
  7                    STORAGE      0.00     0.56   149.81     0  03:12        0.52
  8                    STORAGE      0.06     1.79   147.79     0  03:14        1.78
  9                    STORAGE      0.07     1.73   147.73     0  03:22        1.68
  10                   STORAGE      0.07     1.73   147.73     0  03:22        1.68
  11                   STORAGE      0.07     1.73   147.73     0  03:22        1.68
  12                   STORAGE      0.01     0.67   149.92     0  03:11        0.63
  13                   STORAGE      0.00     0.69   146.69     0  03:12        0.64
  14                   STORAGE      0.00     0.80   146.80     0  03:13        0.79
  15                   STORAGE      0.07     1.72   147.72     0  03:21        1.67
  16                   STORAGE      0.07     1.69   147.69     0  03:22        1.64
  17                   STORAGE      0.06     1.60   147.60     0  03:22        1.56
  18                   STORAGE      0.03     1.01   147.01     0  03:14        1.01
  19                   STORAGE      0.01     0.74   146.74     0  03:11        0.69
  20                   STORAGE      0.00     0.82   143.57     0  03:13        0.80
  21                   STORAGE      0.00     0.53   143.28     0  03:11        0.45
  22                   STORAGE      0.06     1.61   147.61     0  03:22        1.56
  23                   STORAGE      0.04     1.27   147.27     0  03:21        1.22
  24                   STORAGE      0.02     2.02   144.77     0  03:24        1.93
  25                   STORAGE      0.00     0.87   143.62     0  03:23        0.84
  26                   STORAGE      0.01     0.80   143.55     0  03:12        0.79
  27                   STORAGE      0.00     0.95   140.45     0  03:13        0.91
  28                   STORAGE      0.03     1.17   140.67     0  03:11        1.09
  29                   STORAGE      0.01     0.73   149.98     0  03:10        0.66
  30                   STORAGE      0.02     1.00   147.00     0  03:11        0.93
  31                   STORAGE      0.01     0.76   146.76     0  03:11        0.71
  32                   STORAGE      0.01     0.89   143.64     0  03:12        0.84
  33                   STORAGE      0.01     0.98   140.48     0  03:12        0.94
  34                   STORAGE      0.00     0.81   140.31     0  03:13        0.78
  35                   STORAGE      0.01     0.95   140.95     0  03:11        0.87
  36                   STORAGE      0.01     0.72   149.97     0  03:11        0.67
  37                   STORAGE      0.01     0.73   146.73     0  03:11        0.68
  38                   STORAGE      0.01     0.76   143.51     0  03:11        0.72
  39                   STORAGE      0.05     1.96   138.21     0  03:17        1.93
  40                   STORAGE      0.00     0.58   140.08     0  03:12        0.55
  41                   STORAGE      0.04     1.36   140.86     0  03:12        1.32
  42                   STORAGE      0.01     0.72   149.97     0  03:11        0.67
  43                   STORAGE      0.29     4.35   137.35     0  06:10        4.35
  44                   STORAGE      0.01     0.71   140.21     0  03:11        0.67
  45                   STORAGE      0.04     0.96   137.21     0  03:16        0.95
  46                   STORAGE      0.02     3.15   131.15     0  03:20        2.56
  47                   STORAGE      0.01     0.69   140.19     0  03:11        0.67
  48                   STORAGE      0.05     1.77   138.02     0  03:20        1.71
  49                   STORAGE      0.01     0.83   150.08     0  03:11        0.76
  50                   STORAGE      0.01     0.68   146.68     0  03:11        0.64
  51                   STORAGE      0.01     1.03   137.28     0  03:12        0.97
  52                   STORAGE      0.04     1.05   134.05     0  03:13        1.04
  53                   STORAGE      0.07     7.97   130.97     0  03:25        7.79
  54                   STORAGE      0.02     0.90   137.15     0  03:19        0.90
  55                   STORAGE      0.05     1.74   137.99     0  03:19        1.68
  56                   STORAGE      0.02     1.76   138.01     0  03:21        1.69
  57                   STORAGE      0.01     0.71   149.96     0  03:11        0.66
  58                   STORAGE      0.01     0.92   143.67     0  03:11        0.86
  59                   STORAGE      0.01     0.97   137.22     0  03:12        0.91
  60                   STORAGE      0.01     0.84   133.84     0  03:12        0.81
  61                   STORAGE      0.06     7.64   130.54     0  03:30        7.63
  62                   STORAGE      0.01     0.74   136.99     0  03:11        0.71
  63                   STORAGE      0.01     0.72   140.22     0  03:11        0.66
  64                   STORAGE      0.02     1.76   138.01     0  03:19        1.70
  65                   STORAGE      0.01     0.94   146.94     0  03:11        0.86
  66                   STORAGE      0.01     0.83   143.58     0  03:11        0.77
  67                   STORAGE      0.02     1.33   134.33     0  03:13        1.29
  68                   STORAGE      0.01     0.93   130.68     0  03:13        0.92
  69                   STORAGE      0.06     7.02   129.82     0  03:33        6.87
  70                   STORAGE      0.01     0.76   137.01     0  03:11        0.73
  71                   STORAGE      0.01     0.67   140.17     0  03:11        0.63
  72                   STORAGE      0.02     1.76   138.01     0  03:20        1.69
  73                   STORAGE      0.01     0.82   146.82     0  03:11        0.75
  74                   STORAGE      0.01     0.88   140.38     0  03:11        0.81
  75                   STORAGE      0.01     0.84   133.84     0  03:12        0.81
  76                   STORAGE      0.14     8.96   125.46     0  03:53        8.79
  77                   STORAGE      0.03     3.05   125.75     0  03:34        3.00
  78                   STORAGE      0.01     0.82   137.07     0  03:13        0.82
  79                   STORAGE      0.01     1.55   137.80     0  03:20        1.50
  80                   STORAGE      0.03     1.70   137.95     0  03:20        1.64
  81                   STORAGE      0.02     1.23   134.23     0  03:12        1.14
  82                   STORAGE      0.01     0.87   130.62     0  03:12        0.84
  83                   STORAGE      0.13     8.91   125.41     0  03:52        8.76
  84                   STORAGE      0.01     0.73   133.73     0  03:12        0.71
  85                   STORAGE      0.01     0.94   137.19     0  03:13        0.93
  86                   STORAGE      0.01     1.49   137.74     0  03:19        1.45
  87                   STORAGE      0.12     8.77   125.27     0  03:50        8.65
  88                   STORAGE      0.13     8.85   125.35     0  03:51        8.70
  89                   STORAGE      0.01     0.81   133.81     0  03:11        0.77
  90                   STORAGE      0.01     0.86   137.11     0  03:12        0.83
  
  
  *******************
  Node Inflow Summary
  *******************
  
  -------------------------------------------------------------------------------------------------
                                  Maximum  Maximum                  Lateral       Total        Flow
                                  Lateral    Total  Time of Max      Inflow      Inflow     Balance
                                   Inflow   Inflow   Occurrence      Volume      Volume       Error
  Node                 Type           CFS      CFS  days hr:min    10^6 gal    10^6 gal     Percent
  -------------------------------------------------------------------------------------------------
  183                  JUNCTION      0.00  1678.90     0  03:51           0        76.4       0.011
  185                  JUNCTION      0.00  1664.63     0  03:52           0        76.4      -0.001
  186                  JUNCTION      0.00  1663.38     0  03:53           0        76.4      -0.008
  194                  JUNCTION      0.00   674.05     0  03:19           0        13.6       1.012
  195                  JUNCTION      0.00   708.74     0  03:19           0        16.7       1.326
  196                  JUNCTION      0.00   706.51     0  03:19           0        16.7       1.089
  197                  JUNCTION      0.00   741.99     0  03:19           0        16.5       0.769
  198                  JUNCTION      0.00   795.93     0  03:16           0        16.3       0.594
  199                  JUNCTION      0.00   780.34     0  03:16           0        16.1       0.282
  200                  JUNCTION      0.00   351.73     0  03:14           0        10.8       0.091
  201                  JUNCTION      0.00    19.88     0  03:13           0       0.654      -0.027
  202                  JUNCTION      0.00    11.50     0  03:12           0       0.415      -0.086
  204                  JUNCTION      0.00    38.50     0  03:16           0        3.06      -0.002
  205                  JUNCTION      0.00    28.70     0  04:14           0        2.56      -0.023
  209                  JUNCTION      0.00   990.03     0  03:15           0        12.9      -0.043
  210                  JUNCTION      0.00   914.81     0  03:15           0        11.7      -0.024
  211                  JUNCTION      0.00   772.52     0  03:14           0          10      -0.033
  212                  JUNCTION      0.00   591.78     0  03:14           0        7.89      -0.030
  213                  JUNCTION      0.00   531.57     0  03:14           0        7.04      -0.031
  214                  JUNCTION      0.00   377.42     0  03:13           0        5.31      -0.012
  215                  JUNCTION      0.00   215.40     0  03:12           0        2.41      -0.127
  216                  JUNCTION      0.00    93.54     0  03:12           0        1.15      -0.022
  217                  JUNCTION      0.00    21.56     0  05:48           0           2      -0.021
  218                  JUNCTION      0.00    17.06     0  06:07           0        1.47      -0.033
  219                  JUNCTION      0.00    11.27     0  06:08           0       0.961      -0.030
  220                  JUNCTION      0.00     9.04     0  02:59           0       0.495      -0.101
  184                  OUTFALL       0.00  1774.95     0  03:58           0        76.4       0.000
  1                    STORAGE      92.51    92.51     0  03:10        0.86        0.86      -0.067
  2                    STORAGE      92.51   110.01     0  03:10        0.86        1.05       0.154
  3                    STORAGE      92.51   124.67     0  03:10        0.86        1.56      -0.291
  4                    STORAGE      92.51   108.62     0  03:11        0.86        1.26      -0.359
  5                    STORAGE      92.51   161.74     0  03:11        0.86        1.78       0.010
  6                    STORAGE      92.51   128.69     0  03:10        0.86        1.53      -0.405
  7                    STORAGE      92.51   126.48     0  03:10        0.86         1.3      -0.392
  8                    STORAGE      92.51   211.28     0  03:11        0.86         2.5      -0.016
  9                    STORAGE      92.51    92.51     0  03:10        0.86       0.903      -0.479
  10                   STORAGE      92.51   148.90     0  03:11        0.86        2.23      -0.260
  11                   STORAGE      92.51   170.65     0  03:11        0.86        2.85       0.019
  12                   STORAGE      92.51   100.33     0  03:10        0.86       0.972      -0.995
  13                   STORAGE      92.51   133.55     0  03:10        0.86        1.26      -0.234
  14                   STORAGE      92.51   237.87     0  03:13        0.86        3.36       0.117
  15                   STORAGE      92.51    95.52     0  03:10        0.86        1.67      -0.268
  16                   STORAGE      92.51   179.31     0  03:18        0.86         4.4      -0.117
  17                   STORAGE      92.51   227.08     0  03:20        0.86        5.93       0.010
  18                   STORAGE      92.51   164.80     0  03:13        0.86        4.04      -0.066
  19                   STORAGE      92.51   104.63     0  03:10        0.86        1.33      -0.319
  20                   STORAGE      92.51   179.32     0  03:11        0.86        1.77      -0.046
  21                   STORAGE      92.51    95.24     0  03:10        0.86       0.896      -0.622
  22                   STORAGE      92.51   117.09     0  03:18        0.86        3.03      -0.095
  23                   STORAGE      92.51   274.20     0  03:20        0.86        7.33      -0.023
  24                   STORAGE      92.51   552.16     0  03:13        0.86        13.3      -0.019
  25                   STORAGE      92.51   338.87     0  03:22        0.86         5.3      -0.078
  26                   STORAGE      92.51    99.37     0  03:10        0.86        1.02      -0.347
  27                   STORAGE      92.51   212.64     0  03:11        0.86        2.15      -0.065
  28                   STORAGE      92.51    92.51     0  03:10        0.86        0.86       0.216
  29                   STORAGE      92.51    92.51     0  03:10        0.86        0.86      -0.469
  30                   STORAGE      92.51   172.73     0  03:10        0.86        1.72      -0.631
  31                   STORAGE      92.51   108.28     0  03:10        0.86        1.07      -0.625
  32                   STORAGE      92.51   137.78     0  03:10        0.86        1.43      -0.057
  33                   STORAGE      92.51   171.81     0  03:11        0.86        1.78      -0.743
  34                   STORAGE      92.51   175.60     0  03:11        0.86        1.67      -0.156
  35                   STORAGE      92.51    92.51     0  03:10        0.86        0.86      -0.295
  36                   STORAGE      92.51    92.51     0  03:10        0.86       0.868      -0.147
  37                   STORAGE      92.51   133.97     0  03:10        0.86        1.34      -4.233
  38                   STORAGE      92.51   138.92     0  03:10        0.86        1.42      -0.885
  39                   STORAGE      92.51   303.93     0  03:13        0.86        6.02       0.508
  40                   STORAGE      92.51   133.26     0  03:11        0.86        1.49      -1.875
  41                   STORAGE      92.51   135.41     0  03:10        0.86        1.48       0.196
  42                   STORAGE      92.51   100.98     0  03:10        0.86       0.954      -5.762
  43                   STORAGE      92.51   374.50     0  03:11        0.86        4.06       7.101
  44                   STORAGE      92.51   133.09     0  03:10        0.86        1.33      -4.396
  45                   STORAGE      92.51   304.66     0  03:16        0.86           8       0.056
  46                   STORAGE      92.51  1907.70     0  03:17        0.86        31.9      -0.002
  47                   STORAGE      92.51   134.11     0  03:10        0.86        1.74      -1.056
  48                   STORAGE      92.51   121.28     0  03:10        0.86        1.32      -0.214
  49                   STORAGE      92.51    92.51     0  03:10        0.86       0.861       0.013
  50                   STORAGE      92.51   148.31     0  03:10        0.86        1.54      -3.460
  51                   STORAGE      92.51   174.45     0  03:10        0.86        1.85      -0.115
  52                   STORAGE      92.51   305.00     0  03:12        0.86        5.97      -0.710
  53                   STORAGE      92.51  2209.50     0  03:19        0.86        42.5      -0.034
  54                   STORAGE      92.51   211.65     0  03:18        0.86        4.29      -0.903
  55                   STORAGE      92.51   189.15     0  03:11        0.86        3.21       0.081
  56                   STORAGE      92.51    92.51     0  03:10        0.86        1.26      -0.388
  57                   STORAGE      92.51   100.15     0  03:10        0.86       0.953      -0.210
  58                   STORAGE      92.51   171.25     0  03:10        0.86        1.76      -0.026
  59                   STORAGE      92.51   241.38     0  03:11        0.86        2.65      -0.067
  60                   STORAGE      92.51   210.97     0  03:11        0.86        2.54      -2.049
  61                   STORAGE      92.51  1997.03     0  03:20        0.86        46.2       0.224
  62                   STORAGE      92.51   100.03     0  03:10        0.86        1.16      -4.076
  63                   STORAGE      92.51    92.51     0  03:10        0.86        0.86      -1.180
  64                   STORAGE      92.51   139.55     0  03:10        0.86        1.44      -0.114
  65                   STORAGE      92.51   127.34     0  03:10        0.86        1.26      -0.005
  66                   STORAGE      92.51   196.40     0  03:11        0.86         2.1      -0.069
  67                   STORAGE      92.51   320.12     0  03:11        0.86        3.57      -0.008
  68                   STORAGE      92.51   380.99     0  03:12        0.86        4.81      -2.292
  69                   STORAGE      92.51  1806.19     0  03:26        0.86        50.3       0.181
  70                   STORAGE      92.51   117.33     0  03:10        0.86        1.31      -3.596
  71                   STORAGE      92.51    96.08     0  03:10        0.86       0.898      -1.061
  72                   STORAGE      92.51   141.21     0  03:11        0.86           2      -0.017
  73                   STORAGE      92.51   103.06     0  03:10        0.86           1      -0.205
  74                   STORAGE      92.51   249.11     0  03:11        0.86        2.64      -0.033
  75                   STORAGE      92.51   250.78     0  03:11        0.86        2.71      -2.091
  76                   STORAGE      92.51  1974.04     0  03:33        0.86        67.3       0.265
  77                   STORAGE      92.51  1851.51     0  03:32        0.86        61.7       0.032
  78                   STORAGE      92.51   152.56     0  03:17        0.86        2.81      -0.668
  79                   STORAGE      92.51   170.29     0  03:13        0.86        3.48       0.062
  80                   STORAGE      92.51   126.38     0  03:12        0.86        2.35      -0.131
  81                   STORAGE      92.51   205.69     0  03:11        0.86        2.19      -0.037
  82                   STORAGE      92.51   346.02     0  03:12        0.86        3.91      -2.961
  83                   STORAGE      92.51  1921.38     0  03:35        0.86        71.4       0.340
  84                   STORAGE      92.51   175.18     0  03:11        0.86        2.41      -2.857
  85                   STORAGE      92.51   131.15     0  03:10        0.86         2.4      -0.093
  86                   STORAGE      92.51   106.79     0  03:13        0.86        2.07      -0.056
  87                   STORAGE      92.51  1670.23     0  03:53        0.86        76.6       0.313
  88                   STORAGE      92.51  1786.75     0  03:36        0.86          74       0.294
  89                   STORAGE      92.51   163.13     0  03:10        0.86        1.92      -3.030
  90                   STORAGE      92.51    92.51     0  03:10        0.86        1.07      -0.204
  
  
  **********************
  Node Surcharge Summary
  **********************
  
  Surcharging occurs when water rises above the top of the highest conduit.
  ---------------------------------------------------------------------
                                               Max. Height   Min. Depth
                                   Hours       Above Crown    Below Rim
  Node                 Type      Surcharged           Feet         Feet
  ---------------------------------------------------------------------
  195                  JUNCTION        3.27          2.619        9.381
  196                  JUNCTION        0.57          2.520        9.480
  197                  JUNCTION        0.04          2.420        9.580
  198                  JUNCTION        0.01          3.497        8.503
  201                  JUNCTION        3.27          4.757       13.243
  202                  JUNCTION        0.72          4.069       13.931
  204                  JUNCTION        3.48          7.690       10.310
  205                  JUNCTION        3.42          8.567        9.433
  217                  JUNCTION        3.37          8.568        9.432
  218                  JUNCTION        3.33          8.203        9.797
  219                  JUNCTION        3.27          7.473       10.527
  220                  JUNCTION        3.21          6.538       11.462
  
  
  *********************
  Node Flooding Summary
  *********************
  
  No nodes were flooded.
  
  
  **********************
  Storage Volume Summary
  **********************
  
  --------------------------------------------------------------------------------------------------
                         Average     Avg  Evap Exfil       Maximum     Max    Time of Max    Maximum
                          Volume    Pcnt  Pcnt  Pcnt        Volume    Pcnt     Occurrence    Outflow
  Storage Unit          1000 ft3    Full  Loss  Loss      1000 ft3    Full    days hr:min        CFS
  --------------------------------------------------------------------------------------------------
  1                        0.044       0     0     0         5.600       0       0  03:12      68.75
  2                        0.044       0     0     0         5.527       0       0  03:13      85.51
  3                        0.022       0     0     0         3.793       0       0  03:12     120.21
  4                        0.109       0     0     0         9.772       1       0  03:23      63.44
  5                        0.109       0     0     0         9.807       1       0  03:22      98.73
  6                        0.015       0     0     0         3.230       0       0  03:12     120.33
  7                        0.003       0     0     0         1.562       0       0  03:12     120.37
  8                        0.092       0     0     0        10.129       1       0  03:14     178.53
  9                        0.108       0     0     0         9.553       1       0  03:22      36.02
  10                       0.108       0     0     0         9.568       1       0  03:22      84.31
  11                       0.107       0     0     0         9.568       1       0  03:22     108.31
  12                       0.008       0     0     0         2.110       0       0  03:11      93.05
  13                       0.003       0     0     0         2.210       0       0  03:12     120.77
  14                       0.008       0     0     0         2.818       0       0  03:13     236.32
  15                       0.107       0     0     0         9.483       1       0  03:21      66.41
  16                       0.103       0     0     0         9.122       1       0  03:22     166.37
  17                       0.096       0     0     0         8.380       1       0  03:22     222.53
  18                       0.041       0     0     0         4.056       0       0  03:14     161.38
  19                       0.014       0     0     0         2.492       0       0  03:11     101.91
  20                       0.005       0     0     0         2.969       0       0  03:13     165.98
  21                       0.002       0     0     0         1.423       0       0  03:11      88.40
  22                       0.096       0     0     0         8.434       1       0  03:22     112.71
  23                       0.063       0     0     0         5.748       0       0  03:21     272.49
  24                       0.053       0     0     0        12.787       1       0  03:24     506.43
  25                       0.008       0     0     0         3.231       0       0  03:23     337.64
  26                       0.013       0     0     0         2.848       0       0  03:12      86.37
  27                       0.007       0     0     0         3.705       0       0  03:13     190.96
  28                       0.048       0     0     0         5.101       0       0  03:11      81.43
  29                       0.012       0     0     0         2.461       0       0  03:10      87.04
  30                       0.021       0     0     0         4.008       0       0  03:11     157.39
  31                       0.014       0     0     0         2.630       0       0  03:11     104.58
  32                       0.015       0     0     0         3.359       0       0  03:12     126.50
  33                       0.020       0     0     0         3.874       0       0  03:12     160.19
  34                       0.005       0     0     0         2.909       0       0  03:13     160.84
  35                       0.018       0     0     0         3.686       0       0  03:11      82.80
  36                       0.012       0     0     0         2.422       0       0  03:11      84.44
  37                       0.013       0     0     0         2.437       0       0  03:11     127.24
  38                       0.011       0     0     0         2.645       0       0  03:11     132.14
  39                       0.132       0     0     0        12.020       1       0  03:17     229.35
  40                       0.003       0     0     0         1.656       0       0  03:12     128.37
  41                       0.055       0     0     0         6.439       0       0  03:12     107.64
  42                       0.012       0     0     0         2.421       0       0  03:11      93.19
  43                       4.846       0     0     0       107.369       8       0  06:10       6.19
  44                       0.011       0     0     0         2.335       0       0  03:11     128.74
  45                       0.049       0     0     0         3.743       0       0  03:16     303.25
  46                       0.011       0     0     0         4.603       1       0  03:20    1754.10
  47                       0.012       0     0     0         2.251       0       0  03:11     131.94
  48                       0.083       0     0     0         9.927       1       0  03:20      62.95
  49                       0.016       0     0     0         2.993       0       0  03:11      81.64
  50                       0.011       0     0     0         2.171       0       0  03:11     144.72
  51                       0.023       0     0     0         4.162       0       0  03:12     162.64
  52                       0.042       0     0     0         4.294       0       0  03:13     300.37
  53                       0.143       0     0     0        46.059       5       0  03:25    1826.58
  54                       0.025       0     0     0         3.431       0       0  03:19     211.10
  55                       0.080       0     0     0         9.691       1       0  03:19     152.61
  56                       0.062       0     0     0         9.883       1       0  03:21      51.47
  57                       0.011       0     0     0         2.358       0       0  03:11      93.58
  58                       0.018       0     0     0         3.540       0       0  03:11     161.15
  59                       0.020       0     0     0         3.828       0       0  03:12     234.97
  60                       0.017       0     0     0         3.061       0       0  03:12     207.07
  61                       0.125       0     0     0        38.594       4       0  03:30    1667.96
  62                       0.014       0     0     0         2.503       0       0  03:11      92.35
  63                       0.011       0     0     0         2.389       0       0  03:11      84.39
  64                       0.061       0     0     0         9.892       1       0  03:19      56.74
  65                       0.019       0     0     0         3.634       0       0  03:11     117.57
  66                       0.015       0     0     0         2.982       0       0  03:11     192.58
  67                       0.033       0     0     0         6.181       0       0  03:13     297.77
  68                       0.021       0     0     0         3.606       0       0  03:13     376.37
  69                       0.105       0     0     0        27.360       3       0  03:33    1662.85
  70                       0.014       0     0     0         2.637       0       0  03:11     109.68
  71                       0.010       0     0     0         2.133       0       0  03:11      86.96
  72                       0.060       0     0     0         9.818       1       0  03:20      82.10
  73                       0.014       0     0     0         2.956       0       0  03:11      97.60
  74                       0.016       0     0     0         3.288       0       0  03:11     245.63
  75                       0.016       0     0     0         3.074       0       0  03:12     246.47
  76                       0.431       0     0     0        82.797       9       0  03:53    1824.18
  77                       0.019       0     0     0         4.304       0       0  03:34    1846.85
  78                       0.018       0     0     0         2.977       0       0  03:13     152.46
  79                       0.048       0     0     0         7.888       1       0  03:20     161.98
  80                       0.064       0     0     0         9.306       1       0  03:20     111.24
  81                       0.028       0     0     0         5.475       0       0  03:12     196.56
  82                       0.017       0     0     0         3.225       0       0  03:12     341.54
  83                       0.409       0     0     0        80.239       9       0  03:52    1729.64
  84                       0.013       0     0     0         2.444       0       0  03:12     172.42
  85                       0.019       0     0     0         3.616       0       0  03:13     131.76
  86                       0.042       0     0     0         7.425       1       0  03:19      93.35
  87                       0.361       0     0     0        73.811       8       0  03:50    1678.90
  88                       0.386       0     0     0        77.160       8       0  03:51    1642.00
  89                       0.016       0     0     0         2.903       0       0  03:11     157.72
  90                       0.017       0     0     0         3.185       0       0  03:12      81.14
  
  
  ***********************
  Outfall Loading Summary
  ***********************
  
  -----------------------------------------------------------
                         Flow       Avg       Max       Total
                         Freq      Flow      Flow      Volume
  Outfall Node           Pcnt       CFS       CFS    10^6 gal
  -----------------------------------------------------------
  184                   68.73     17.44   1774.95      76.369
  -----------------------------------------------------------
  System                68.73     17.44   1774.95      76.369
  
  
  ********************
  Link Flow Summary
  ********************
  
  -----------------------------------------------------------------------------
                                 Maximum  Time of Max   Maximum    Max/    Max/
                                  |Flow|   Occurrence   |Veloc|    Full    Full
  Link                 Type          CFS  days hr:min    ft/sec    Flow   Depth
  -----------------------------------------------------------------------------
  1                    CHANNEL     20.44     0  03:11      0.52    0.03    0.12
  2                    CHANNEL     48.12     0  03:13      1.51    0.08    0.11
  3                    CHANNEL     34.06     0  03:12      0.46    0.05    0.18
  4                    CHANNEL     84.81     0  03:12      2.20    0.00    0.13
  5                    CHANNEL     11.47     0  03:12      0.94    0.02    0.07
  6                    CHANNEL     13.42     0  03:12      0.39    0.00    0.12
  7                    CHANNEL     27.52     0  03:11      0.55    0.04    0.17
  8                    CHANNEL     11.48     0  03:30      0.16    0.02    0.17
  9                    CHANNEL     28.05     0  03:11      1.04    0.00    0.12
  10                   CHANNEL     28.00     0  03:11      5.15    0.00    0.07
  11                   CHANNEL      8.26     0  03:14      0.67    0.01    0.07
  12                   CHANNEL     66.41     0  03:19      0.74    0.11    0.17
  13                   CHANNEL     85.50     0  03:21      1.02    0.14    0.16
  14                   CHANNEL    111.36     0  03:23      2.36    0.18    0.13
  15                   CHANNEL     23.11     0  03:14      1.25    0.04    0.09
  16                   CHANNEL     45.00     0  03:11      6.39    0.00    0.08
  17                   CHANNEL    112.71     0  03:22      1.87    0.18    0.14
  18                   CHANNEL    272.49     0  03:21      6.93    0.01    0.16
  19                   CHANNEL    268.33     0  03:24      4.42    0.42    0.14
  20                   CHANNEL     12.66     0  03:23      0.81    0.02    0.08
  21                   CHANNEL     63.11     0  03:12      5.46    0.00    0.09
  22                   CHANNEL     43.52     0  03:10      2.34    0.00    0.09
  23                   CHANNEL     22.74     0  03:12      1.14    0.04    0.09
  24                   CHANNEL     51.78     0  03:11      3.00    0.00    0.08
  25                   CHANNEL     92.61     0  03:12      4.09    0.00    0.09
  26                   CHANNEL     41.69     0  03:11      3.29    0.00    0.07
  27                   CHANNEL     42.40     0  03:11      3.12    0.00    0.07
  28                   CHANNEL     74.28     0  03:11      2.96    0.00    0.13
  29                   CHANNEL     93.19     0  03:11      3.45    0.00    0.23
  30                   CHANNEL     53.33     0  03:11      1.80    0.00    0.23
  31                   CHANNEL     37.71     0  03:11      2.57    0.00    0.08
  32                   CHANNEL     62.46     0  03:11      4.47    0.00    0.08
  33                   CHANNEL     52.97     0  03:11      3.62    0.00    0.09
  34                   CHANNEL    146.04     0  03:12      5.27    0.00    0.10
  35                   CHANNEL     54.82     0  03:11      3.29    0.00    0.08
  36                   CHANNEL    146.90     0  03:11      6.32    0.00    0.09
  37                   CHANNEL    112.44     0  03:12      5.27    0.00    0.09
  38                   CHANNEL    101.73     0  03:11      5.04    0.00    0.09
  39                   CHANNEL    122.10     0  03:11      4.27    0.00    0.11
  40                   CHANNEL    239.24     0  03:13      7.00    0.01    0.11
  41                   CHANNEL     97.60     0  03:11      5.27    0.00    0.08
  42                   CHANNEL    120.83     0  03:11      6.35    0.00    0.09
  43                   CHANNEL    170.75     0  03:12      2.45    0.00    0.47
  44                   CHANNEL    196.56     0  03:12      6.78    0.01    0.10
  45                   CHANNEL    170.77     0  03:12      2.65    0.00    0.47
  46                   CHANNEL      8.12     0  03:13      0.84    0.01    0.07
  47                   CHANNEL     41.76     0  03:11      1.51    0.07    0.11
  48                   CHANNEL     20.67     0  03:12      1.00    0.03    0.09
  49                   CHANNEL     14.28     0  03:12      0.50    0.00    0.12
  50                   CHANNEL    186.32     0  03:16     10.41    0.00    0.20
  51                   CHANNEL    273.57     0  03:13      4.96    0.00    0.44
  52                   CHANNEL    132.13     0  03:12      3.31    0.00    0.41
  53                   CHANNEL    158.05     0  03:13      3.06    0.00    0.39
  54                   CHANNEL     36.98     0  03:12      1.90    0.00    0.09
  55                   CHANNEL     51.96     0  03:13      2.13    0.08    0.10
  56                   CHANNEL     33.99     0  03:11      1.23    0.00    0.12
  57                   CHANNEL     63.96     0  03:11      7.20    0.00    0.19
  58                   CHANNEL     46.82     0  03:22      0.72    0.07    0.18
  59                   CHANNEL    152.61     0  03:20      3.12    0.24    0.13
  60                   CHANNEL    196.07     0  03:19      4.06    0.00    0.44
  61                   CHANNEL     40.15     0  03:11      2.40    0.00    0.12
  63                   CHANNEL     92.35     0  03:11      3.35    0.00    0.41
  64                   CHANNEL     28.99     0  03:11      2.13    0.00    0.12
  65                   CHANNEL     28.99     0  03:11      2.38    0.00    0.07
  66                   CHANNEL    106.15     0  03:11      3.68    0.00    0.38
  67                   CHANNEL    111.24     0  03:21      1.37    0.18    0.16
  68                   CHANNEL     98.95     0  03:20      2.64    0.16    0.12
  69                   CHANNEL    143.44     0  03:13      5.44    0.00    0.19
  70                   CHANNEL   1846.85     0  03:34     13.35    0.08    0.59
  71                   CHANNEL     86.10     0  03:19      2.23    0.14    0.12
  72                   CHANNEL     93.09     0  03:13      5.27    0.00    0.08
  73                   CHANNEL     96.34     0  03:12      2.65    0.00    0.47
  74                   CHANNEL     78.95     0  03:12      4.42    0.00    0.08
  75                   CHANNEL    149.10     0  03:11      3.43    0.00    0.47
  76                   CHANNEL   1642.00     0  03:53      7.06    5.54    0.88
  77                   CHANNEL    120.21     0  03:12      2.41    0.00    0.14
  78                   CHANNEL     37.46     0  03:12      1.79    0.06    0.09
  79                   CHANNEL     49.39     0  03:12      1.67    0.08    0.11
  80                   CHANNEL    178.53     0  03:14      3.87    0.28    0.13
  81                   CHANNEL     13.42     0  03:12      2.40    0.00    0.06
  82                   CHANNEL     12.64     0  03:12      0.88    0.02    0.08
  83                   CHANNEL     67.08     0  03:16      0.89    0.11    0.17
  84                   CHANNEL     63.44     0  03:16      0.73    0.10    0.17
  85                   CHANNEL     61.50     0  03:13      4.68    0.00    0.08
  86                   CHANNEL      5.71     0  03:11      0.76    0.01    0.07
  87                   CHANNEL     28.05     0  03:11      1.69    0.00    0.08
  88                   CHANNEL    108.31     0  03:22      1.28    0.17    0.17
  89                   CHANNEL     73.09     0  03:18      0.89    0.12    0.17
  90                   CHANNEL     36.02     0  03:17      0.41    0.06    0.17
  91                   CHANNEL     12.04     0  03:11      2.11    0.00    0.07
  92                   CHANNEL      7.55     0  03:11      0.71    0.01    0.08
  93                   CHANNEL     43.33     0  03:12      6.58    0.00    0.08
  94                   CHANNEL    138.28     0  03:14      6.43    0.00    0.15
  95                   CHANNEL    111.16     0  03:23      1.87    0.18    0.14
  96                   CHANNEL     81.49     0  03:23      0.98    0.13    0.16
  97                   CHANNEL     39.77     0  03:11      1.60    0.06    0.10
  98                   CHANNEL     15.86     0  03:11      0.78    0.03    0.10
  99                   CHANNEL     12.36     0  03:12      0.67    0.02    0.08
  100                  CHANNEL     49.29     0  03:12      6.70    0.00    0.08
  101                  CHANNEL    134.69     0  03:11      5.81    0.00    0.14
  102                  CHANNEL     43.52     0  03:10      2.12    0.00    0.09
  103                  CHANNEL     47.14     0  03:11      1.41    0.00    0.11
  104                  CHANNEL      8.89     0  03:13      0.79    0.01    0.07
  105                  CHANNEL    125.58     0  03:12      2.77    0.00    0.14
  106                  CHANNEL     13.51     0  03:12      0.77    0.02    0.08
  107                  CHANNEL      4.71     0  03:11      0.35    0.01    0.07
  108                  CHANNEL     41.69     0  03:11      2.22    0.00    0.09
  109                  CHANNEL     55.90     0  03:12      2.03    0.09    0.10
  110                  CHANNEL     26.88     0  03:12      2.73    0.00    0.18
  111                  CHANNEL    229.35     0  03:17      3.68    0.36    0.15
  112                  CHANNEL     49.82     0  03:11      3.77    0.00    0.07
  113                  CHANNEL     84.84     0  03:11      2.99    0.00    0.23
  114                  CHANNEL      1.09     0  03:10      0.30    0.00    0.07
  115                  CHANNEL     62.95     0  03:12      1.02    0.10    0.18
  116                  CHANNEL     33.99     0  03:11      2.31    0.00    0.08
  117                  CHANNEL   1754.10     0  03:20     14.90    0.08    0.54
  118                  CHANNEL    116.92     0  03:16      4.66    0.00    0.10
  119                  CHANNEL     37.71     0  03:11      2.17    0.00    0.09
  120                  CHANNEL     61.18     0  03:11      2.41    0.00    0.23
  121                  CHANNEL      9.53     0  03:11      0.64    0.02    0.08
  122                  CHANNEL     17.14     0  03:20      0.46    0.03    0.18
  123                  CHANNEL     40.15     0  03:11      1.68    0.00    0.12
  124                  CHANNEL     15.03     0  03:19      0.97    0.02    0.08
  125                  CHANNEL   1826.58     0  03:20     10.70    0.62    0.77
  126                  CHANNEL     26.84     0  03:14      1.18    0.04    0.09
  127                  CHANNEL     16.71     0  03:12      0.65    0.03    0.10
  128                  CHANNEL     30.57     0  03:11      2.23    0.00    0.08
  129                  CHANNEL      9.75     0  03:11      0.67    0.02    0.08
  130                  CHANNEL     35.34     0  03:16      0.49    0.06    0.18
  131                  CHANNEL      4.09     0  03:11      0.36    0.01    0.07
  132                  CHANNEL      3.92     0  03:13      0.29    0.01    0.08
  133                  CHANNEL   1667.96     0  03:26     10.20    0.56    0.73
  134                  CHANNEL     74.93     0  03:12      3.69    0.00    0.09
  135                  CHANNEL    122.53     0  03:12      3.56    0.00    0.11
  136                  CHANNEL     14.35     0  03:12      0.73    0.02    0.09
  137                  CHANNEL     38.76     0  03:11      2.25    0.00    0.08
  138                  CHANNEL     16.03     0  03:12      0.81    0.03    0.09
  139                  CHANNEL     70.48     0  03:11      3.76    0.00    0.09
  140                  CHANNEL     58.53     0  03:13      1.88    0.09    0.11
  141                  CHANNEL    218.32     0  03:13      2.23    0.00    0.48
  142                  CHANNEL   1662.85     0  03:33     13.65    0.56    0.50
  143                  CHANNEL      9.85     0  03:19      0.71    0.02    0.08
  144                  CHANNEL     28.99     0  03:11      2.14    0.00    0.11
  145                  CHANNEL     76.93     0  03:21      0.80    0.12    0.17
  146                  CHANNEL     57.38     0  03:21      0.85    0.09    0.15
  147                  CHANNEL     15.95     0  03:13      0.79    0.03    0.09
  148                  CHANNEL     76.08     0  03:12      3.76    0.00    0.18
  149                  CHANNEL   1824.18     0  03:35      7.60    6.16    0.89
  150                  CHANNEL     75.72     0  03:12      4.01    0.00    0.09
  151                  CHANNEL    124.86     0  03:11      4.31    0.00    0.11
  152                  CHANNEL     15.53     0  03:19      0.84    0.02    0.09
  153                  CHANNEL      8.62     0  03:11      0.59    0.01    0.08
  154                  CHANNEL   1729.64     0  03:36      7.18    5.84    0.89
  155                  CHANNEL    170.77     0  03:12      3.02    0.00    0.47
  159                  CHANNEL   1678.90     0  03:51      8.50    0.39    0.72
  160                  CHANNEL   1664.63     0  03:52     13.30    0.17    0.52
  161                  CHANNEL   1663.38     0  03:53     13.47    0.12    0.52
  162                  CHANNEL   1774.95     0  03:58     11.95    0.19    0.68
  168                  CONDUIT     11.15     0  03:13      4.09    0.76    1.00
  169                  CONDUIT     19.89     0  03:13      6.33    1.35    1.00
  170                  CONDUIT    475.77     0  03:16      8.31    0.31    0.78
  171                  CONDUIT    790.81     0  03:16      8.85    0.51    0.91
  172                  CONDUIT    736.27     0  03:19      6.83    0.47    1.00
  173                  CONDUIT    701.62     0  03:19      6.26    0.45    1.00
  174                  CONDUIT    708.74     0  03:19      6.33    0.46    1.00
  175                  CONDUIT    674.05     0  03:19      6.02    0.43    1.00
  176                  CHANNEL     95.74     0  03:13      3.78    0.01    0.12
  177                  CHANNEL    210.90     0  03:13      5.14    0.03    0.19
  178                  CHANNEL    376.99     0  03:14      6.80    0.05    0.25
  179                  CHANNEL    532.61     0  03:14      8.22    0.07    0.29
  180                  CHANNEL    596.27     0  03:15      8.11    0.08    0.33
  181                  CHANNEL    779.35     0  03:15      9.15    0.10    0.37
  182                  CHANNEL    914.49     0  03:15     10.28    0.12    0.39
  183                  CHANNEL   1008.00     0  03:16     13.23    0.09    0.33
  186                  CONDUIT      6.28     0  06:14      3.64    0.36    1.00
  187                  CONDUIT     11.31     0  06:08      4.57    0.64    1.00
  188                  CONDUIT     17.08     0  06:07      5.44    0.97    1.00
  189                  CONDUIT     21.57     0  05:48      6.87    1.22    1.00
  190                  CONDUIT     28.70     0  04:14      9.14    1.63    1.00
  191                  CONDUIT     38.49     0  03:16     13.16    4.78    1.00
  192                  CONDUIT      5.78     0  06:08      9.84    0.53    1.00
  193                  CONDUIT      5.50     0  06:07      8.78    0.48    1.00
  194                  CONDUIT      5.86     0  05:59      9.27    0.48    1.00
  195                  CONDUIT      6.39     0  04:15      8.50    0.50    1.00
  196                  CONDUIT      8.04     0  04:14     10.61    0.61    1.00
  197                  CONDUIT     10.14     0  03:16     13.35    0.74    0.97
  208                  CONDUIT    666.37     0  03:20     20.73    0.13    0.30
  209                  CONDUIT     11.50     0  03:12     15.06    1.05    0.93
  210                  CONDUIT      8.99     0  03:11     12.85    0.78    0.83
  211                  CONDUIT      9.25     0  03:11     12.77    0.89    0.87
  212                  CONDUIT    325.01     0  03:23     14.16    0.40    0.72
  213                  CONDUIT      8.85     0  03:10     12.09    0.91    0.90
  214                  CONDUIT      9.54     0  03:09     12.94    0.93    0.95
  215                  CONDUIT      8.99     0  03:09     12.56    0.84    0.88
  216                  CONDUIT     35.42     0  03:19     11.60    0.74    0.99
  217                  CONDUIT      6.39     0  03:20      8.22    0.78    0.98
  218                  CONDUIT     93.54     0  03:12     16.31    0.01    0.15
  219                  CONDUIT    120.77     0  03:12     12.39    0.02    0.22
  220                  CONDUIT    166.61     0  03:13     11.43    0.02    0.31
  221                  CONDUIT    157.92     0  03:13      9.51    0.02    0.36
  222                  CONDUIT     76.35     0  03:11      8.13    0.01    0.35
  223                  CONDUIT    190.96     0  03:13      9.27    0.03    0.44
  224                  CONDUIT    151.96     0  03:13      7.80    0.02    0.47
  225                  CONDUIT     87.21     0  03:12      7.68    0.01    0.44
  226                  CONDUIT    324.18     0  03:14     21.25    1.22    1.00
  62                   CONDUIT      6.19     0  05:09      9.76    1.18    1.00
  
  
  ***************************
  Flow Classification Summary
  ***************************
  
  -------------------------------------------------------------------------------------
                      Adjusted    ---------- Fraction of Time in Flow Class ---------- 
                       /Actual         Up    Down  Sub   Sup   Up    Down  Norm  Inlet 
  Conduit               Length    Dry  Dry   Dry   Crit  Crit  Crit  Crit  Ltd   Ctrl  
  -------------------------------------------------------------------------------------
  1                       1.00   0.00  0.00  0.00  1.00  0.00  0.00  0.00  0.00  0.00
  2                       1.00   0.00  0.00  0.00  1.00  0.00  0.00  0.00  0.00  0.00
  3                       1.00   0.00  0.00  0.00  1.00  0.00  0.00  0.00  0.00  0.00
  4                       1.00   0.00  0.00  0.00  1.00  0.00  0.00  0.00  1.00  0.00
  5                       1.00   0.00  0.00  0.00  1.00  0.00  0.00  0.00  0.00  0.00
  6                       1.00   0.00  0.70  0.00  0.30  0.00  0.00  0.00  1.00  0.00
  7                       1.00   0.00  0.00  0.00  1.00  0.00  0.00  0.00  0.00  0.00
  8                       1.00   0.00  0.00  0.00  1.00  0.00  0.00  0.00  0.00  0.00
  9                       1.00   0.00  0.21  0.00  0.78  0.00  0.00  0.00  1.00  0.00
  10                      1.00   0.21  0.00  0.00  0.75  0.03  0.00  0.00  0.00  0.00
  11                      1.00   0.14  0.00  0.00  0.86  0.00  0.00  0.00  0.00  0.00
  12                      1.00   0.00  0.00  0.00  1.00  0.00  0.00  0.00  0.00  0.00
  13                      1.00   0.00  0.00  0.00  1.00  0.00  0.00  0.00  0.00  0.00
  14                      1.00   0.00  0.00  0.00  1.00  0.00  0.00  0.00  0.00  0.00
  15                      1.00   0.00  0.00  0.00  1.00  0.00  0.00  0.00  0.00  0.00
  16                      1.00   0.32  0.00  0.00  0.61  0.07  0.00  0.00  0.00  0.00
  17                      1.00   0.00  0.00  0.00  1.00  0.00  0.00  0.00  0.00  0.00
  18                      1.00   0.00  0.00  0.00  0.00  1.00  0.00  0.00  0.00  0.00
  19                      1.00   0.00  0.00  0.00  0.99  0.01  0.00  0.00  0.00  0.00
  20                      1.00   0.87  0.00  0.00  0.13  0.00  0.00  0.00  0.00  0.00
  21                      1.00   0.54  0.33  0.00  0.09  0.04  0.00  0.00  0.00  0.00
  22                      1.00   0.00  0.00  0.00  1.00  0.00  0.00  0.00  1.00  0.00
  23                      1.00   0.00  0.00  0.00  1.00  0.00  0.00  0.00  0.00  0.00
  24                      1.00   0.00  0.00  0.00  0.88  0.12  0.00  0.00  0.01  0.00
  25                      1.00   0.00  0.83  0.00  0.17  0.00  0.00  0.00  1.00  0.00
  26                      1.00   0.00  0.00  0.00  0.91  0.09  0.00  0.00  0.99  0.00
  27                      1.00   0.00  0.00  0.00  0.89  0.11  0.00  0.00  0.00  0.00
  28                      1.00   0.00  0.83  0.00  0.17  0.00  0.00  0.00  1.00  0.00
  29                      1.00   0.00  0.00  0.00  0.94  0.06  0.00  0.00  1.00  0.00
  30                      1.00   0.00  0.00  0.00  0.95  0.05  0.00  0.00  1.00  0.00
  31                      1.00   0.00  0.00  0.00  0.99  0.01  0.00  0.00  0.99  0.00
  32                      1.00   0.00  0.00  0.00  0.80  0.20  0.00  0.00  0.08  0.00
  33                      1.00   0.00  0.00  0.00  0.72  0.28  0.00  0.00  1.00  0.00
  34                      1.00   0.00  0.00  0.00  0.99  0.01  0.00  0.00  0.99  0.00
  35                      1.00   0.00  0.00  0.00  0.90  0.10  0.00  0.00  1.00  0.00
  36                      1.00   0.00  0.00  0.00  0.69  0.31  0.00  0.00  1.00  0.00
  37                      1.00   0.00  0.00  0.00  0.51  0.49  0.00  0.00  0.98  0.00
  38                      1.00   0.00  0.00  0.00  0.75  0.25  0.00  0.00  0.00  0.00
  39                      1.00   0.00  0.00  0.00  0.64  0.36  0.00  0.00  1.00  0.00
  40                      1.00   0.00  0.00  0.00  0.47  0.53  0.00  0.00  0.01  0.00
  41                      1.00   0.00  0.00  0.00  0.83  0.17  0.00  0.00  1.00  0.00
  42                      1.00   0.00  0.00  0.00  0.79  0.21  0.00  0.00  0.01  0.00
  43                      1.00   0.00  0.00  0.00  1.00  0.00  0.00  0.00  1.00  0.00
  44                      1.00   0.00  0.00  0.00  0.69  0.31  0.00  0.00  0.64  0.00
  45                      1.00   0.00  0.00  0.00  1.00  0.00  0.00  0.00  1.00  0.00
  46                      1.00   0.93  0.00  0.00  0.07  0.00  0.00  0.00  0.00  0.00
  47                      1.00   0.00  0.00  0.00  1.00  0.00  0.00  0.00  0.00  0.00
  48                      1.00   0.00  0.00  0.00  1.00  0.00  0.00  0.00  0.00  0.00
  49                      1.00   0.00  0.49  0.00  0.51  0.00  0.00  0.00  1.00  0.00
  50                      1.00   0.00  0.00  0.00  0.01  0.99  0.00  0.00  0.01  0.00
  51                      1.00   0.00  0.00  0.00  0.02  0.98  0.00  0.00  0.02  0.00
  52                      1.00   0.00  0.00  0.00  0.83  0.17  0.00  0.00  0.83  0.00
  53                      1.00   0.00  0.00  0.00  0.56  0.44  0.00  0.00  0.97  0.00
  54                      1.00   0.00  0.00  0.00  0.91  0.08  0.00  0.00  0.00  0.00
  55                      1.00   0.00  0.00  0.00  1.00  0.00  0.00  0.00  0.00  0.00
  56                      1.00   0.00  0.00  0.00  1.00  0.00  0.00  0.00  1.00  0.00
  57                      1.00   0.00  0.00  0.00  0.85  0.15  0.00  0.00  0.88  0.00
  58                      1.00   0.00  0.00  0.00  1.00  0.00  0.00  0.00  0.00  0.00
  59                      1.00   0.00  0.00  0.00  1.00  0.00  0.00  0.00  0.00  0.00
  60                      1.00   0.00  0.00  0.00  0.30  0.70  0.00  0.00  0.43  0.00
  61                      1.00   0.00  0.00  0.00  0.95  0.05  0.00  0.00  0.02  0.00
  63                      1.00   0.00  0.00  0.00  0.95  0.05  0.00  0.00  1.00  0.00
  64                      1.00   0.00  0.00  0.00  0.94  0.06  0.00  0.00  0.04  0.00
  65                      1.00   0.00  0.00  0.00  0.83  0.17  0.00  0.00  1.00  0.00
  66                      1.00   0.00  0.00  0.00  0.81  0.19  0.00  0.00  1.00  0.00
  67                      1.00   0.00  0.00  0.00  1.00  0.00  0.00  0.00  0.00  0.00
  68                      1.00   0.00  0.00  0.00  1.00  0.00  0.00  0.00  0.00  0.00
  69                      1.00   0.00  0.00  0.00  0.95  0.05  0.00  0.00  0.11  0.00
  70                      1.00   0.00  0.00  0.00  1.00  0.00  0.00  0.00  1.00  0.00
  71                      1.00   0.40  0.00  0.00  0.60  0.00  0.00  0.00  0.00  0.00
  72                      1.00   0.00  0.51  0.00  0.47  0.02  0.00  0.00  0.99  0.00
  73                      1.00   0.00  0.00  0.00  1.00  0.00  0.00  0.00  1.00  0.00
  74                      1.00   0.00  0.00  0.00  0.84  0.16  0.00  0.00  0.98  0.00
  75                      1.00   0.00  0.00  0.00  1.00  0.00  0.00  0.00  1.00  0.00
  76                      1.00   0.00  0.00  0.00  1.00  0.00  0.00  0.00  0.00  0.00
  77                      1.00   0.00  0.00  0.00  1.00  0.00  0.00  0.00  1.00  0.00
  78                      1.00   0.00  0.00  0.00  1.00  0.00  0.00  0.00  0.00  0.00
  79                      1.00   0.00  0.00  0.00  1.00  0.00  0.00  0.00  0.00  0.00
  80                      1.00   0.00  0.00  0.00  0.99  0.01  0.00  0.00  0.00  0.00
  81                      1.00   0.70  0.00  0.00  0.28  0.02  0.00  0.00  0.01  0.00
  82                      1.00   0.00  0.00  0.00  1.00  0.00  0.00  0.00  0.00  0.00
  83                      1.00   0.00  0.00  0.00  1.00  0.00  0.00  0.00  0.00  0.00
  84                      1.00   0.00  0.00  0.00  1.00  0.00  0.00  0.00  0.00  0.00
  85                      1.00   0.14  0.00  0.00  0.82  0.04  0.00  0.00  0.01  0.00
  86                      1.00   0.32  0.00  0.00  0.68  0.00  0.00  0.00  0.00  0.00
  87                      1.00   0.00  0.21  0.00  0.78  0.00  0.00  0.00  1.00  0.00
  88                      1.00   0.00  0.00  0.00  1.00  0.00  0.00  0.00  0.00  0.00
  89                      1.00   0.00  0.00  0.00  1.00  0.00  0.00  0.00  0.00  0.00
  90                      1.00   0.00  0.00  0.00  1.00  0.00  0.00  0.00  0.00  0.00
  91                      1.00   0.54  0.41  0.00  0.04  0.01  0.00  0.00  1.00  0.00
  92                      1.00   0.87  0.00  0.00  0.13  0.00  0.00  0.00  0.00  0.00
  93                      1.00   0.32  0.00  0.00  0.61  0.07  0.00  0.00  0.00  0.00
  94                      1.00   0.00  0.00  0.00  0.01  0.99  0.00  0.00  0.00  0.00
  95                      1.00   0.00  0.00  0.00  1.00  0.00  0.00  0.00  0.00  0.00
  96                      1.00   0.00  0.00  0.00  1.00  0.00  0.00  0.00  0.00  0.00
  97                      1.00   0.00  0.00  0.00  1.00  0.00  0.00  0.00  0.00  0.00
  98                      1.00   0.00  0.00  0.00  1.00  0.00  0.00  0.00  0.00  0.00
  99                      1.00   0.82  0.00  0.00  0.18  0.00  0.00  0.00  0.00  0.00
  100                     1.00   0.00  0.00  0.00  0.89  0.11  0.00  0.00  0.90  0.00
  101                     1.00   0.00  0.00  0.00  0.79  0.21  0.00  0.00  0.65  0.00
  102                     1.00   0.00  0.00  0.00  1.00  0.00  0.00  0.00  1.00  0.00
  103                     1.00   0.00  0.00  0.00  1.00  0.00  0.00  0.00  0.99  0.00
  104                     1.00   0.35  0.00  0.00  0.65  0.00  0.00  0.00  0.00  0.00
  105                     1.00   0.00  0.00  0.00  1.00  0.00  0.00  0.00  1.00  0.00
  106                     1.00   0.82  0.00  0.00  0.18  0.00  0.00  0.00  0.00  0.00
  107                     1.00   0.00  0.00  0.00  1.00  0.00  0.00  0.00  0.00  0.00
  108                     1.00   0.00  0.00  0.00  1.00  0.00  0.00  0.00  1.00  0.00
  109                     1.00   0.00  0.00  0.00  1.00  0.00  0.00  0.00  0.00  0.00
  110                     1.00   0.00  0.49  0.00  0.51  0.00  0.00  0.00  1.00  0.00
  111                     1.00   0.00  0.00  0.00  1.00  0.00  0.00  0.00  0.00  0.00
  112                     1.00   0.00  0.83  0.00  0.16  0.01  0.00  0.00  0.99  0.00
  113                     1.00   0.00  0.00  0.00  0.93  0.07  0.00  0.00  0.16  0.00
  114                     1.00   0.00  0.00  0.00  1.00  0.00  0.00  0.00  0.00  0.00
  115                     1.00   0.00  0.00  0.00  1.00  0.00  0.00  0.00  0.00  0.00
  116                     1.00   0.00  0.00  0.00  0.18  0.82  0.00  0.00  1.00  0.00
  117                     1.00   0.00  0.00  0.00  1.00  0.00  0.00  0.00  1.00  0.00
  118                     1.00   0.00  0.00  0.00  0.01  0.99  0.00  0.00  0.02  0.00
  119                     1.00   0.00  0.00  0.00  0.89  0.11  0.00  0.00  1.00  0.00
  120                     1.00   0.00  0.00  0.00  0.95  0.05  0.00  0.00  1.00  0.00
  121                     1.00   0.00  0.00  0.00  1.00  0.00  0.00  0.00  0.00  0.00
  122                     1.00   0.00  0.00  0.00  1.00  0.00  0.00  0.00  0.00  0.00
  123                     1.00   0.00  0.00  0.00  1.00  0.00  0.00  0.00  1.00  0.00
  124                     1.00   0.00  0.00  0.00  1.00  0.00  0.00  0.00  0.00  0.00
  125                     1.00   0.00  0.00  0.00  1.00  0.00  0.00  0.00  0.00  0.00
  126                     1.00   0.00  0.00  0.00  1.00  0.00  0.00  0.00  0.00  0.00
  127                     1.00   0.00  0.00  0.00  1.00  0.00  0.00  0.00  0.00  0.00
  128                     1.00   0.00  0.00  0.00  0.79  0.21  0.00  0.00  1.00  0.00
  129                     1.00   0.00  0.00  0.00  1.00  0.00  0.00  0.00  0.00  0.00
  130                     1.00   0.00  0.00  0.00  1.00  0.00  0.00  0.00  0.00  0.00
  131                     1.00   0.00  0.00  0.00  1.00  0.00  0.00  0.00  0.00  0.00
  132                     1.00   0.00  0.00  0.00  1.00  0.00  0.00  0.00  0.00  0.00
  133                     1.00   0.00  0.00  0.00  1.00  0.00  0.00  0.00  0.00  0.00
  134                     1.00   0.00  0.00  0.00  0.39  0.61  0.00  0.00  0.02  0.00
  135                     1.00   0.00  0.00  0.00  0.60  0.40  0.00  0.00  1.00  0.00
  136                     1.00   0.00  0.00  0.00  1.00  0.00  0.00  0.00  0.00  0.00
  137                     1.00   0.00  0.00  0.00  0.88  0.12  0.00  0.00  1.00  0.00
  138                     1.00   0.00  0.00  0.00  1.00  0.00  0.00  0.00  0.00  0.00
  139                     1.00   0.00  0.00  0.00  0.79  0.21  0.00  0.00  0.92  0.00
  140                     1.00   0.00  0.00  0.00  1.00  0.00  0.00  0.00  0.00  0.00
  141                     1.00   0.00  0.00  0.00  0.96  0.04  0.00  0.00  1.00  0.00
  142                     1.00   0.00  0.00  0.00  0.99  0.01  0.00  0.00  0.00  0.00
  143                     1.00   0.00  0.00  0.00  1.00  0.00  0.00  0.00  0.00  0.00
  144                     1.00   0.00  0.00  0.00  0.94  0.06  0.00  0.00  0.04  0.00
  145                     1.00   0.00  0.00  0.00  1.00  0.00  0.00  0.00  0.00  0.00
  146                     1.00   0.00  0.00  0.00  1.00  0.00  0.00  0.00  0.00  0.00
  147                     1.00   0.00  0.00  0.00  1.00  0.00  0.00  0.00  0.00  0.00
  148                     1.00   0.00  0.00  0.00  0.97  0.03  0.00  0.00  0.99  0.00
  149                     1.00   0.00  0.00  0.00  1.00  0.00  0.00  0.00  0.00  0.00
  150                     1.00   0.00  0.00  0.00  0.80  0.20  0.00  0.00  0.99  0.00
  151                     1.00   0.00  0.00  0.00  0.46  0.54  0.00  0.00  1.00  0.00
  152                     1.00   0.00  0.00  0.00  1.00  0.00  0.00  0.00  0.00  0.00
  153                     1.00   0.00  0.00  0.00  1.00  0.00  0.00  0.00  0.00  0.00
  154                     1.00   0.00  0.00  0.00  1.00  0.00  0.00  0.00  0.00  0.00
  155                     1.00   0.00  0.00  0.00  0.81  0.19  0.00  0.00  1.00  0.00
  159                     1.00   0.00  0.00  0.00  1.00  0.00  0.00  0.00  0.00  0.00
  160                     1.00   0.00  0.00  0.00  0.99  0.01  0.00  0.00  0.00  0.00
  161                     1.00   0.00  0.00  0.00  0.99  0.01  0.00  0.00  1.00  0.00
  162                     1.00   0.00  0.00  0.00  1.00  0.00  0.00  0.00  0.00  0.00
  168                     1.00   0.68  0.02  0.00  0.29  0.00  0.00  0.00  0.72  0.00
  169                     1.00   0.00  0.68  0.00  0.31  0.01  0.00  0.00  0.98  0.00
  170                     1.00   0.00  0.00  0.00  1.00  0.00  0.00  0.00  0.00  0.00
  171                     1.00   0.00  0.00  0.00  1.00  0.00  0.00  0.00  0.00  0.00
  172                     1.00   0.00  0.00  0.00  1.00  0.00  0.00  0.00  0.00  0.00
  173                     1.00   0.00  0.00  0.00  1.00  0.00  0.00  0.00  0.00  0.00
  174                     1.00   0.00  0.00  0.00  1.00  0.00  0.00  0.00  0.00  0.00
  175                     1.00   0.00  0.00  0.00  1.00  0.00  0.00  0.00  0.00  0.00
  176                     1.00   0.14  0.05  0.00  0.81  0.00  0.00  0.00  0.05  0.00
  177                     1.00   0.00  0.18  0.00  0.82  0.00  0.00  0.00  0.80  0.00
  178                     1.00   0.00  0.00  0.00  1.00  0.00  0.00  0.00  0.00  0.00
  179                     1.00   0.00  0.01  0.00  0.99  0.00  0.00  0.00  0.00  0.00
  180                     1.00   0.00  0.00  0.00  1.00  0.00  0.00  0.00  0.00  0.00
  181                     1.00   0.00  0.01  0.00  0.99  0.00  0.00  0.00  0.01  0.00
  182                     1.00   0.00  0.00  0.00  1.00  0.00  0.00  0.00  0.00  0.00
  183                     1.00   0.00  0.00  0.00  1.00  0.00  0.00  0.00  0.75  0.00
  186                     1.00   0.00  0.00  0.00  1.00  0.00  0.00  0.00  0.54  0.00
  187                     1.00   0.00  0.00  0.00  1.00  0.00  0.00  0.00  0.55  0.00
  188                     1.00   0.00  0.00  0.00  1.00  0.00  0.00  0.00  0.47  0.00
  189                     1.00   0.00  0.00  0.00  0.99  0.01  0.00  0.00  0.50  0.00
  190                     1.00   0.04  0.47  0.00  0.49  0.00  0.00  0.00  0.94  0.00
  191                     1.00   0.00  0.04  0.00  0.94  0.02  0.00  0.00  0.06  0.00
  192                     1.00   0.00  0.00  0.00  0.54  0.46  0.00  0.00  0.84  0.00
  193                     1.00   0.00  0.37  0.00  0.62  0.01  0.00  0.00  0.99  0.00
  194                     1.00   0.00  0.00  0.00  0.99  0.01  0.00  0.00  0.99  0.00
  195                     1.00   0.00  0.00  0.00  0.99  0.01  0.00  0.00  0.99  0.00
  196                     1.00   0.06  0.38  0.00  0.54  0.01  0.00  0.00  0.99  0.00
  197                     1.00   0.00  0.51  0.00  0.47  0.01  0.00  0.00  1.00  0.00
  208                     1.00   0.00  0.99  0.00  0.00  0.01  0.00  0.00  0.99  0.00
  209                     1.00   0.00  0.00  0.00  0.72  0.28  0.00  0.00  1.00  0.00
  210                     1.00   0.10  0.11  0.00  0.78  0.01  0.00  0.00  1.00  0.00
  211                     1.00   0.00  0.32  0.00  0.66  0.02  0.00  0.00  0.99  0.00
  212                     1.00   0.00  0.91  0.00  0.09  0.00  0.00  0.00  1.00  0.00
  213                     1.00   0.00  0.87  0.00  0.11  0.02  0.00  0.00  0.99  0.00
  214                     1.00   0.00  0.83  0.00  0.16  0.02  0.00  0.00  0.99  0.00
  215                     1.00   0.00  0.83  0.00  0.15  0.02  0.00  0.00  0.99  0.00
  216                     1.00   0.00  0.00  0.00  0.98  0.02  0.00  0.00  0.00  0.00
  217                     1.00   0.00  0.00  0.00  0.98  0.02  0.00  0.00  0.01  0.00
  218                     1.00   0.19  0.51  0.00  0.08  0.23  0.00  0.00  0.36  0.00
  219                     1.00   0.18  0.77  0.00  0.03  0.02  0.00  0.00  0.49  0.00
  220                     1.00   0.00  0.14  0.00  0.79  0.07  0.00  0.00  1.00  0.00
  221                     1.00   0.01  0.92  0.00  0.07  0.01  0.00  0.00  1.00  0.00
  222                     1.00   0.00  0.95  0.00  0.04  0.00  0.00  0.00  1.00  0.00
  223                     1.00   0.01  0.53  0.00  0.45  0.00  0.00  0.00  0.83  0.00
  224                     1.00   0.00  0.53  0.00  0.46  0.00  0.00  0.00  1.00  0.00
  225                     1.00   0.00  0.49  0.00  0.51  0.00  0.00  0.00  0.93  0.00
  226                     1.00   0.00  0.00  0.00  0.98  0.02  0.00  0.00  1.00  0.00
  62                      1.00   0.00  0.00  0.00  0.83  0.17  0.00  0.00  0.79  0.00
  
  
  *************************
  Conduit Surcharge Summary
  *************************
  
  ----------------------------------------------------------------------------
                                                           Hours        Hours 
                         --------- Hours Full --------   Above Full   Capacity
  Conduit                Both Ends  Upstream  Dnstream   Normal Flow   Limited
  ----------------------------------------------------------------------------
  76                          0.01      0.01      0.01      2.42         0.01
  149                         0.01      0.01      0.01      2.17         0.01
  154                         0.01      0.01      0.01      2.33         0.01
  168                         0.72      0.72      3.27      0.01         0.01
  169                         3.26      3.27      4.44      0.28         0.24
  171                         0.01      0.01      0.01      0.01         0.01
  172                         0.01      0.01      0.04      0.01         0.01
  173                         0.04      0.04      0.57      0.01         0.01
  174                         0.56      0.56      3.27      0.01         0.01
  175                         3.27      3.27      4.44      0.01         0.01
  186                         3.20      3.20      3.26      0.01         0.01
  187                         3.26      3.26      3.33      0.01         0.01
  188                         3.33      3.33      3.37      0.01         0.01
  189                         3.37      3.37      3.42      3.04         3.06
  190                         3.42      3.42      3.48      3.20         3.20
  191                         0.82      3.48      0.82      3.68         0.82
  192                         1.20      1.20      3.26      0.01         0.01
  193                         1.19      1.19      3.33      0.01         0.01
  194                         1.16      1.16      3.42      0.01         0.01
  195                         0.93      0.93      3.47      0.01         0.01
  196                         0.84      0.84      3.52      0.01         0.01
  197                         0.01      0.01      3.99      0.01         0.01
  209                         0.01      0.01      3.31      0.06         0.01
  210                         0.01      0.01      4.57      0.01         0.01
  211                         0.01      0.01      6.66      0.01         0.01
  212                         0.01      0.01      6.63      0.01         0.01
  213                         0.01      0.01    380.88      0.01         0.01
  214                         0.01      0.01    380.97      0.01         0.01
  215                         0.01      0.01    381.09      0.01         0.01
  216                         0.01      0.01    381.10      0.01         0.01
  217                         0.01      0.01    382.14      0.01         0.01
  226                         0.09      0.09      4.44      0.21         0.01
  62                          1.96     31.92      1.96      3.31         1.96
  

  Analysis begun on:  Thu Mar 18 02:29:34 2021
  Analysis ended on:  Thu Mar 18 02:30:08 2021
  Total elapsed time: 00:00:34