
  EPA STORM WATER MANAGEMENT MODEL - VERSION 5.1 (Build 5.1.015)
  --------------------------------------------------------------

  WARNING 04: minimum elevation drop used for Conduit 37
  WARNING 04: minimum elevation drop used for Conduit 38
  WARNING 04: minimum elevation drop used for Conduit 39
  WARNING 04: minimum elevation drop used for Conduit 40
  WARNING 04: minimum elevation drop used for Conduit 41
  WARNING 04: minimum elevation drop used for Conduit 45
  WARNING 04: minimum elevation drop used for Conduit 46
  WARNING 04: minimum elevation drop used for Conduit 47
  WARNING 04: minimum elevation drop used for Conduit 48
  WARNING 04: minimum elevation drop used for Conduit 49
  WARNING 04: minimum elevation drop used for Conduit 50
  WARNING 04: minimum elevation drop used for Conduit 51
  WARNING 04: minimum elevation drop used for Conduit 52
  WARNING 04: minimum elevation drop used for Conduit 53
  WARNING 04: minimum elevation drop used for Conduit 54
  WARNING 04: minimum elevation drop used for Conduit 55
  WARNING 04: minimum elevation drop used for Conduit 56
  WARNING 04: minimum elevation drop used for Conduit 57
  WARNING 04: minimum elevation drop used for Conduit 58
  WARNING 04: minimum elevation drop used for Conduit 59
  WARNING 04: minimum elevation drop used for Conduit 60
  WARNING 04: minimum elevation drop used for Conduit 61
  WARNING 04: minimum elevation drop used for Conduit 62
  WARNING 04: minimum elevation drop used for Conduit 63
  WARNING 04: minimum elevation drop used for Conduit 64
  WARNING 04: minimum elevation drop used for Conduit 65
  WARNING 04: minimum elevation drop used for Conduit 66
  WARNING 04: minimum elevation drop used for Conduit 67
  WARNING 04: minimum elevation drop used for Conduit 68
  WARNING 04: minimum elevation drop used for Conduit 69
  WARNING 04: minimum elevation drop used for Conduit 70
  WARNING 04: minimum elevation drop used for Conduit 71
  WARNING 04: minimum elevation drop used for Conduit 72
  WARNING 04: minimum elevation drop used for Conduit 73
  WARNING 04: minimum elevation drop used for Conduit 74
  WARNING 04: minimum elevation drop used for Conduit 75
  WARNING 04: minimum elevation drop used for Conduit 76
  WARNING 04: minimum elevation drop used for Conduit 77
  WARNING 04: minimum elevation drop used for Conduit 78
  WARNING 04: minimum elevation drop used for Conduit 79
  WARNING 04: minimum elevation drop used for Conduit 80
  WARNING 04: minimum elevation drop used for Conduit 81
  WARNING 04: minimum elevation drop used for Conduit 82
  WARNING 04: minimum elevation drop used for Conduit 83
  WARNING 04: minimum elevation drop used for Conduit 84
  WARNING 04: minimum elevation drop used for Conduit 85
  WARNING 04: minimum elevation drop used for Conduit 86
  WARNING 04: minimum elevation drop used for Conduit 87
  WARNING 04: minimum elevation drop used for Conduit 88
  WARNING 04: minimum elevation drop used for Conduit 90
  WARNING 04: minimum elevation drop used for Conduit 91
  WARNING 04: minimum elevation drop used for Conduit 92
  WARNING 04: minimum elevation drop used for Conduit 93
  WARNING 04: minimum elevation drop used for Conduit 98
  WARNING 04: minimum elevation drop used for Conduit 99
  WARNING 04: minimum elevation drop used for Conduit 103
  WARNING 04: minimum elevation drop used for Conduit 104
  WARNING 04: minimum elevation drop used for Conduit 105
  WARNING 04: minimum elevation drop used for Conduit 106
  WARNING 04: minimum elevation drop used for Conduit 107
  WARNING 04: minimum elevation drop used for Conduit 108
  WARNING 04: minimum elevation drop used for Conduit 109
  WARNING 04: minimum elevation drop used for Conduit 110
  WARNING 04: minimum elevation drop used for Conduit 112
  WARNING 04: minimum elevation drop used for Conduit 113
  WARNING 04: minimum elevation drop used for Conduit 115
  WARNING 04: minimum elevation drop used for Conduit 118
  WARNING 04: minimum elevation drop used for Conduit 119
  WARNING 04: minimum elevation drop used for Conduit 120
  WARNING 04: minimum elevation drop used for Conduit 121
  WARNING 04: minimum elevation drop used for Conduit 123
  WARNING 04: minimum elevation drop used for Conduit 124
  WARNING 04: minimum elevation drop used for Conduit 125
  WARNING 04: minimum elevation drop used for Conduit 126
  WARNING 04: minimum elevation drop used for Conduit 134
  WARNING 04: minimum elevation drop used for Conduit 135
  WARNING 04: minimum elevation drop used for Conduit 136
  WARNING 04: minimum elevation drop used for Conduit 137
  WARNING 04: minimum elevation drop used for Conduit 138
  WARNING 04: minimum elevation drop used for Conduit 140
  WARNING 04: minimum elevation drop used for Conduit 141
  WARNING 04: minimum elevation drop used for Conduit 142
  WARNING 04: minimum elevation drop used for Conduit 146
  WARNING 04: minimum elevation drop used for Conduit 151
  WARNING 04: minimum elevation drop used for Conduit 152
  WARNING 04: minimum elevation drop used for Conduit 153
  WARNING 04: minimum elevation drop used for Conduit 154
  WARNING 04: minimum elevation drop used for Conduit 157
  WARNING 04: minimum elevation drop used for Conduit 160
  WARNING 04: minimum elevation drop used for Conduit 162
  WARNING 04: minimum elevation drop used for Conduit 163
  WARNING 04: minimum elevation drop used for Conduit 167
  WARNING 04: minimum elevation drop used for Conduit 171
  WARNING 04: minimum elevation drop used for Conduit 173
  WARNING 04: minimum elevation drop used for Conduit 177
  WARNING 04: minimum elevation drop used for Conduit 190
  WARNING 04: minimum elevation drop used for Conduit 191
  WARNING 04: minimum elevation drop used for Conduit 192
  WARNING 04: minimum elevation drop used for Conduit 199
  WARNING 04: minimum elevation drop used for Conduit 200
  WARNING 04: minimum elevation drop used for Conduit 201
  WARNING 04: minimum elevation drop used for Conduit 204
  WARNING 04: minimum elevation drop used for Conduit 205
  WARNING 04: minimum elevation drop used for Conduit 206
  WARNING 04: minimum elevation drop used for Conduit 208
  WARNING 04: minimum elevation drop used for Conduit 209
  WARNING 04: minimum elevation drop used for Conduit 210
  WARNING 04: minimum elevation drop used for Conduit 211
  WARNING 04: minimum elevation drop used for Conduit 212
  WARNING 04: minimum elevation drop used for Conduit 213
  WARNING 04: minimum elevation drop used for Conduit 215
  WARNING 04: minimum elevation drop used for Conduit 216
  WARNING 04: minimum elevation drop used for Conduit 217
  WARNING 04: minimum elevation drop used for Conduit 218
  WARNING 04: minimum elevation drop used for Conduit 219
  WARNING 04: minimum elevation drop used for Conduit 220
  WARNING 04: minimum elevation drop used for Conduit 222
  WARNING 04: minimum elevation drop used for Conduit 223
  WARNING 04: minimum elevation drop used for Conduit 226
  WARNING 04: minimum elevation drop used for Conduit 228
  WARNING 04: minimum elevation drop used for Conduit 229
  WARNING 04: minimum elevation drop used for Conduit 230
  WARNING 04: minimum elevation drop used for Conduit 231
  WARNING 04: minimum elevation drop used for Conduit 232
  WARNING 04: minimum elevation drop used for Conduit 234
  WARNING 04: minimum elevation drop used for Conduit 235
  WARNING 04: minimum elevation drop used for Conduit 236
  WARNING 04: minimum elevation drop used for Conduit 237
  WARNING 04: minimum elevation drop used for Conduit 238
  WARNING 04: minimum elevation drop used for Conduit 239
  WARNING 04: minimum elevation drop used for Conduit 246
  WARNING 04: minimum elevation drop used for Conduit 248
  WARNING 04: minimum elevation drop used for Conduit 249
  WARNING 04: minimum elevation drop used for Conduit 250
  WARNING 04: minimum elevation drop used for Conduit 279
  
  *********************************************************
  NOTE: The summary statistics displayed in this report are
  based on results found at every computational time step,  
  not just on results from each reporting time step.
  *********************************************************
  
  ****************
  Analysis Options
  ****************
  Flow Units ............... CFS
  Process Models:
    Rainfall/Runoff ........ YES
    RDII ................... NO
    Snowmelt ............... NO
    Groundwater ............ NO
    Flow Routing ........... YES
    Ponding Allowed ........ NO
    Water Quality .......... YES
  Infiltration Method ...... HORTON
  Flow Routing Method ...... DYNWAVE
  Surcharge Method ......... SLOT
  Starting Date ............ 04/08/2021 00:00:00
  Ending Date .............. 04/08/2021 22:00:00
  Antecedent Dry Days ...... 0.0
  Report Time Step ......... 00:05:00
  Wet Time Step ............ 00:01:00
  Dry Time Step ............ 00:05:00
  Routing Time Step ........ 15.00 sec
  Variable Time Step ....... YES
  Maximum Trials ........... 8
  Number of Threads ........ 1
  Head Tolerance ........... 0.005000 ft
  
  
  **************************        Volume         Depth
  Runoff Quantity Continuity     acre-feet        inches
  **************************     ---------       -------
  Total Precipitation ......      1045.000         6.000
  Evaporation Loss .........         0.000         0.000
  Infiltration Loss ........       433.561         2.489
  Surface Runoff ...........       599.025         3.439
  Final Storage ............        12.428         0.071
  Continuity Error (%) .....        -0.001
  
  
  **************************           TSS
  Runoff Quality Continuity            lbs
  **************************    ----------
  Initial Buildup ..........     19200.000
  Surface Buildup ..........      2365.432
  Wet Deposition ...........         0.000
  Sweeping Removal .........         0.000
  Infiltration Loss ........         0.000
  BMP Removal ..............         0.000
  Surface Runoff ...........     19200.000
  Remaining Buildup ........      2365.432
  Continuity Error (%) .....         0.000
  
  
  **************************        Volume        Volume
  Flow Routing Continuity        acre-feet      10^6 gal
  **************************     ---------     ---------
  Dry Weather Inflow .......         0.000         0.000
  Wet Weather Inflow .......       598.989       195.190
  Groundwater Inflow .......         0.000         0.000
  RDII Inflow ..............         0.000         0.000
  External Inflow ..........        56.337        18.358
  External Outflow .........       494.303       161.076
  Flooding Loss ............       144.882        47.212
  Evaporation Loss .........         0.000         0.000
  Exfiltration Loss ........         0.000         0.000
  Initial Stored Volume ....         4.891         1.594
  Final Stored Volume ......        21.007         6.846
  Continuity Error (%) .....         0.004
  
  
  **************************           TSS
  Quality Routing Continuity           lbs
  **************************    ----------
  Dry Weather Inflow .......         0.000
  Wet Weather Inflow .......     19157.486
  Groundwater Inflow .......         0.000
  RDII Inflow ..............         0.000
  External Inflow ..........         0.000
  External Outflow .........     17169.133
  Flooding Loss ............       630.658
  Exfiltration Loss ........         0.000
  Mass Reacted .............         0.000
  Initial Stored Mass ......         0.000
  Final Stored Mass ........       226.758
  Continuity Error (%) .....         5.903
  
  
  *************************
  Highest Continuity Errors
  *************************
  Node 243 (22.02%)
  Node 242 (15.48%)
  Node 102 (5.78%)
  Node 96 (5.77%)
  Node 101 (5.74%)
  
  
  ***************************
  Time-Step Critical Elements
  ***************************
  Link 92 (31.22%)
  Link 254 (10.70%)
  Link 91 (8.26%)
  Link 253 (5.89%)
  Link 217 (5.71%)
  
  
  ********************************
  Highest Flow Instability Indexes
  ********************************
  Link 83 (64)
  Link 87 (64)
  Link 84 (64)
  Link 81 (58)
  Link 79 (57)
  
  
  *************************
  Routing Time Step Summary
  *************************
  Minimum Time Step           :     0.24 sec
  Average Time Step           :     8.90 sec
  Maximum Time Step           :    15.00 sec
  Percent in Steady State     :     0.00
  Average Iterations per Step :     5.06
  Percent Not Converging      :    38.42
  Time Step Frequencies       :
     15.000 -  7.597 sec      :    61.65 %
      7.597 -  3.848 sec      :    23.48 %
      3.848 -  1.949 sec      :     7.94 %
      1.949 -  0.987 sec      :     3.42 %
      0.987 -  0.500 sec      :     3.51 %
  
  
  ***************************
  Subcatchment Runoff Summary
  ***************************
  
  ------------------------------------------------------------------------------------------------------------------------------
                            Total      Total      Total      Total     Imperv       Perv      Total       Total     Peak  Runoff
                           Precip      Runon       Evap      Infil     Runoff     Runoff     Runoff      Runoff   Runoff   Coeff
  Subcatchment                 in         in         in         in         in         in         in    10^6 gal      CFS
  ------------------------------------------------------------------------------------------------------------------------------
  3                          6.00       0.00       0.00       2.27       1.49       2.19       3.68        1.60    13.50   0.614
  4                          6.00       0.00       0.00       2.07       1.49       2.39       3.88        0.53     4.33   0.647
  8                          6.00       0.00       0.00       2.16       1.49       2.31       3.80        0.93     7.72   0.633
  9                          6.00       0.00       0.00       2.16       1.49       2.31       3.80        0.93     7.72   0.633
  10                         6.00       0.00       0.00       2.16       1.49       2.31       3.80        0.93     7.72   0.633
  11                         6.00       0.00       0.00       2.16       1.49       2.31       3.80        0.93     7.72   0.633
  12                         6.00       0.00       0.00       2.21       1.49       2.25       3.74        1.22    10.23   0.624
  13                         6.00       0.00       0.00       2.27       1.49       2.19       3.68        1.60    13.50   0.614
  14                         6.00       0.00       0.00       2.05       1.49       2.41       3.90        0.42     3.47   0.651
  15                         6.00       0.00       0.00       2.07       1.49       2.39       3.88        0.53     4.33   0.647
  16                         6.00       0.00       0.00       2.07       1.49       2.39       3.88        0.53     4.33   0.647
  17                         6.00       0.00       0.00       2.07       1.49       2.39       3.88        0.53     4.33   0.647
  18                         6.00       0.00       0.00       2.07       1.49       2.39       3.88        0.53     4.33   0.647
  19                         6.00       0.00       0.00       2.07       1.49       2.39       3.88        0.53     4.33   0.647
  20                         6.00       0.00       0.00       2.07       1.49       2.39       3.88        0.53     4.33   0.647
  21                         6.00       0.00       0.00       2.61       1.49       1.85       3.34        4.36    35.96   0.557
  22                         6.00       0.00       0.00       2.05       1.49       2.41       3.90        0.42     3.47   0.651
  23                         6.00       0.00       0.00       2.05       1.49       2.41       3.90        0.42     3.47   0.651
  24                         6.00       0.00       0.00       2.07       1.49       2.39       3.88        0.53     4.33   0.647
  25                         6.00       0.00       0.00       1.99       1.49       2.47       3.96        0.22     1.74   0.661
  26                         6.00       0.00       0.00       1.99       1.49       2.47       3.96        0.22     1.74   0.661
  27                         6.00       0.00       0.00       2.07       1.49       2.39       3.88        0.53     4.33   0.647
  28                         6.00       0.00       0.00       2.05       1.49       2.41       3.90        0.42     3.47   0.651
  29                         6.00       0.00       0.00       1.99       1.49       2.47       3.96        0.22     1.74   0.661
  30                         6.00       0.00       0.00       1.99       1.49       2.47       3.96        0.22     1.74   0.661
  31                         6.00       0.00       0.00       1.99       1.49       2.47       3.96        0.22     1.74   0.661
  32                         6.00       0.00       0.00       2.05       1.49       2.41       3.90        0.42     3.47   0.651
  33                         6.00       0.00       0.00       1.99       1.49       2.47       3.96        0.22     1.74   0.661
  34                         6.00       0.00       0.00       2.07       1.49       2.39       3.88        0.53     4.33   0.647
  35                         6.00       0.00       0.00       2.07       1.49       2.39       3.88        0.53     4.33   0.647
  36                         6.00       0.00       0.00       2.27       1.49       2.19       3.68        1.60    13.50   0.614
  37                         6.00       0.00       0.00       2.21       1.49       2.25       3.74        1.22    10.23   0.624
  38                         6.00       0.00       0.00       2.21       1.49       2.25       3.74        1.22    10.23   0.624
  39                         6.00       0.00       0.00       2.27       1.49       2.19       3.68        1.60    13.50   0.614
  40                         6.00       0.00       0.00       2.27       1.49       2.19       3.68        1.60    13.50   0.614
  41                         6.00       0.00       0.00       2.27       1.49       2.19       3.68        1.60    13.50   0.614
  42                         6.00       0.00       0.00       2.27       1.49       2.19       3.68        1.60    13.50   0.614
  44                         6.00       0.00       0.00       2.07       1.49       2.39       3.88        0.53     4.33   0.647
  45                         6.00       0.00       0.00       2.07       1.49       2.39       3.88        0.53     4.33   0.647
  46                         6.00       0.00       0.00       2.07       1.49       2.39       3.88        0.53     4.33   0.647
  47                         6.00       0.00       0.00       2.07       1.49       2.39       3.88        0.53     4.33   0.647
  48                         6.00       0.00       0.00       2.07       1.49       2.39       3.88        0.53     4.33   0.647
  49                         6.00       0.00       0.00       2.07       1.49       2.39       3.88        0.53     4.33   0.647
  50                         6.00       0.00       0.00       2.07       1.49       2.39       3.88        0.53     4.33   0.647
  51                         6.00       0.00       0.00       2.07       1.49       2.39       3.88        0.53     4.33   0.647
  52                         6.00       0.00       0.00       2.07       1.49       2.39       3.88        0.53     4.33   0.647
  53                         6.00       0.00       0.00       2.07       1.49       2.39       3.88        0.53     4.33   0.647
  54                         6.00       0.00       0.00       2.07       1.49       2.39       3.88        0.53     4.33   0.647
  55                         6.00       0.00       0.00       2.07       1.49       2.39       3.88        0.53     4.33   0.647
  56                         6.00       0.00       0.00       2.07       1.49       2.39       3.88        0.53     4.33   0.647
  57                         6.00       0.00       0.00       2.07       1.49       2.39       3.88        0.53     4.33   0.647
  58                         6.00       0.00       0.00       2.07       1.49       2.39       3.88        0.53     4.33   0.647
  59                         6.00       0.00       0.00       2.07       1.49       2.39       3.88        0.53     4.33   0.647
  60                         6.00       0.00       0.00       2.07       1.49       2.39       3.88        0.53     4.33   0.647
  61                         6.00       0.00       0.00       2.07       1.49       2.39       3.88        0.53     4.33   0.647
  62                         6.00       0.00       0.00       2.07       1.49       2.39       3.88        0.53     4.33   0.647
  63                         6.00       0.00       0.00       2.07       1.49       2.39       3.88        0.53     4.33   0.647
  64                         6.00       0.00       0.00       2.07       1.49       2.39       3.88        0.53     4.33   0.647
  65                         6.00       0.00       0.00       2.07       1.49       2.39       3.88        0.53     4.33   0.647
  66                         6.00       0.00       0.00       2.07       1.49       2.39       3.88        0.53     4.33   0.647
  67                         6.00       0.00       0.00       2.07       1.49       2.39       3.88        0.53     4.33   0.647
  83                         6.00       0.00       0.00       2.07       1.49       2.39       3.88        0.53     4.33   0.647
  297                        6.00       0.00       0.00       2.07       1.49       2.39       3.88        0.53     4.33   0.647
  298                        6.00       0.00       0.00       2.07       1.49       2.39       3.88        0.53     4.33   0.647
  299                        6.00       0.00       0.00       2.07       1.49       2.39       3.88        0.53     4.33   0.647
  300                        6.00       0.00       0.00       2.07       1.49       2.39       3.88        0.53     4.33   0.647
  301                        6.00       0.00       0.00       2.07       1.49       2.39       3.88        0.53     4.33   0.647
  302                        6.00       0.00       0.00       2.07       1.49       2.39       3.88        0.53     4.33   0.647
  303                        6.00       0.00       0.00       2.27       1.49       2.19       3.68        1.60    13.50   0.614
  304                        6.00       0.00       0.00       2.07       1.49       2.39       3.88        0.53     4.33   0.647
  305                        6.00       0.00       0.00       2.07       1.49       2.39       3.88        0.53     4.33   0.647
  306                        6.00       0.00       0.00       2.07       1.49       2.39       3.88        0.53     4.33   0.647
  307                        6.00       0.00       0.00       2.07       1.49       2.39       3.88        0.53     4.33   0.647
  308                        6.00       0.00       0.00       2.07       1.49       2.39       3.88        0.53     4.33   0.647
  309                        6.00       0.00       0.00       2.07       1.49       2.39       3.88        0.53     4.33   0.647
  310                        6.00       0.00       0.00       2.07       1.49       2.39       3.88        0.53     4.33   0.647
  311                        6.00       0.00       0.00       2.07       1.49       2.39       3.88        0.53     4.33   0.647
  312                        6.00       0.00       0.00       2.07       1.49       2.39       3.88        0.53     4.33   0.647
  313                        6.00       0.00       0.00       2.07       1.49       2.39       3.88        0.53     4.33   0.647
  314                        6.00       0.00       0.00       2.07       1.49       2.39       3.88        0.53     4.33   0.647
  315                        6.00       0.00       0.00       2.21       1.49       2.25       3.74        1.22    10.23   0.624
  316                        6.00       0.00       0.00       2.27       1.49       2.19       3.68        1.60    13.50   0.614
  317                        6.00       0.00       0.00       2.14       1.49       2.33       3.82        0.83     6.88   0.636
  318                        6.00       0.00       0.00       2.27       1.49       2.19       3.68        1.60    13.50   0.614
  319                        6.00       0.00       0.00       2.21       1.49       2.25       3.74        1.22    10.23   0.624
  320                        6.00       0.00       0.00       2.14       1.49       2.33       3.82        0.83     6.88   0.636
  321                        6.00       0.00       0.00       2.27       1.49       2.19       3.68        1.60    13.50   0.614
  322                        6.00       0.00       0.00       2.27       1.49       2.19       3.68        1.60    13.50   0.614
  323                        6.00       0.00       0.00       2.21       1.49       2.25       3.74        1.22    10.23   0.624
  324                        6.00       0.00       0.00       2.21       1.49       2.25       3.74        1.22    10.23   0.624
  325                        6.00       0.00       0.00       2.07       1.49       2.39       3.88        0.53     4.33   0.647
  326                        6.00       0.00       0.00       2.07       1.49       2.39       3.88        0.53     4.33   0.647
  327                        6.00       0.00       0.00       2.27       1.49       2.19       3.68        1.60    13.50   0.614
  328                        6.00       0.00       0.00       2.07       1.49       2.39       3.88        0.53     4.33   0.647
  329                        6.00       0.00       0.00       2.27       1.49       2.19       3.68        1.60    13.50   0.614
  330                        6.00       0.00       0.00       2.27       1.49       2.19       3.68        1.60    13.50   0.614
  331                        6.00       0.00       0.00       2.27       1.49       2.19       3.68        1.60    13.50   0.614
  332                        6.00       0.00       0.00       2.37       1.49       2.09       3.58        2.33    19.75   0.596
  333                        6.00       0.00       0.00       2.07       1.49       2.39       3.88        0.53     4.33   0.647
  334                        6.00       0.00       0.00       2.14       1.49       2.33       3.82        0.83     6.88   0.636
  335                        6.00       0.00       0.00       2.27       1.49       2.19       3.68        1.60    13.50   0.614
  336                        6.00       0.00       0.00       2.14       1.49       2.33       3.82        0.83     6.88   0.636
  337                        6.00       0.00       0.00       2.14       1.49       2.33       3.82        0.83     6.88   0.636
  338                        6.00       0.00       0.00       2.21       1.49       2.25       3.74        1.22    10.23   0.624
  339                        6.00       0.00       0.00       2.27       1.49       2.19       3.68        1.60    13.50   0.614
  340                        6.00       0.00       0.00       2.14       1.49       2.33       3.82        0.83     6.88   0.636
  341                        6.00       0.00       0.00       2.14       1.49       2.33       3.82        0.83     6.88   0.636
  342                        6.00       0.00       0.00       2.07       1.49       2.39       3.88        0.53     4.33   0.647
  343                        6.00       0.00       0.00       2.07       1.49       2.39       3.88        0.53     4.33   0.647
  344                        6.00       0.00       0.00       2.07       1.49       2.39       3.88        0.53     4.33   0.647
  345                        6.00       0.00       0.00       2.07       1.49       2.39       3.88        0.53     4.33   0.647
  346                        6.00       0.00       0.00       2.07       1.49       2.39       3.88        0.53     4.33   0.647
  347                        6.00       0.00       0.00       2.07       1.49       2.39       3.88        0.53     4.33   0.647
  348                        6.00       0.00       0.00       2.21       1.49       2.25       3.74        1.22    10.23   0.624
  349                        6.00       0.00       0.00       2.21       1.49       2.25       3.74        1.22    10.23   0.624
  350                        6.00       0.00       0.00       2.21       1.49       2.25       3.74        1.22    10.23   0.624
  351                        6.00       0.00       0.00       2.21       1.49       2.25       3.74        1.22    10.23   0.624
  352                        6.00       0.00       0.00       2.56       1.49       1.90       3.39        3.87    32.24   0.566
  353                        6.00       0.00       0.00       2.30       1.49       2.16       3.65        1.79    15.10   0.609
  354                        6.00       0.00       0.00       2.37       1.49       2.09       3.58        2.33    19.75   0.596
  355                        6.00       0.00       0.00       2.37       1.49       2.09       3.58        2.33    19.75   0.596
  356                        6.00       0.00       0.00       2.07       1.49       2.39       3.88        0.53     4.33   0.647
  357                        6.00       0.00       0.00       2.07       1.49       2.39       3.88        0.53     4.33   0.647
  358                        6.00       0.00       0.00       2.07       1.49       2.39       3.88        0.53     4.33   0.647
  359                        6.00       0.00       0.00       2.37       1.49       2.09       3.58        2.33    19.75   0.596
  360                        6.00       0.00       0.00       2.21       1.49       2.25       3.74        1.22    10.23   0.624
  361                        6.00       0.00       0.00       2.30       1.49       2.16       3.65        1.79    15.10   0.609
  362                        6.00       0.00       0.00       2.21       1.49       2.25       3.74        1.22    10.23   0.624
  363                        6.00       0.00       0.00       2.27       1.49       2.19       3.68        1.60    13.50   0.614
  364                        6.00       0.00       0.00       2.27       1.49       2.19       3.68        1.60    13.50   0.614
  365                        6.00       0.00       0.00       2.37       1.49       2.09       3.58        2.33    19.75   0.596
  366                        6.00       0.00       0.00       2.37       1.49       2.09       3.58        2.33    19.75   0.596
  367                        6.00       0.00       0.00       2.27       1.49       2.19       3.68        1.60    13.50   0.614
  368                        6.00       0.00       0.00       2.21       1.49       2.25       3.74        1.22    10.23   0.624
  369                        6.00       0.00       0.00       2.14       1.49       2.33       3.82        0.83     6.88   0.636
  370                        6.00       0.00       0.00       2.21       1.49       2.25       3.74        1.22    10.23   0.624
  371                        6.00       0.00       0.00       2.07       1.49       2.39       3.88        0.53     4.33   0.647
  372                        6.00       0.00       0.00       2.14       1.49       2.33       3.82        0.83     6.88   0.636
  373                        6.00       0.00       0.00       2.14       1.49       2.33       3.82        0.83     6.88   0.636
  374                        6.00       0.00       0.00       2.07       1.49       2.39       3.88        0.53     4.33   0.647
  375                        6.00       0.00       0.00       2.07       1.49       2.39       3.88        0.53     4.33   0.647
  376                        6.00       0.00       0.00       2.21       1.49       2.25       3.74        1.22    10.23   0.624
  377                        6.00       0.00       0.00       2.27       1.49       2.19       3.68        1.60    13.50   0.614
  378                        6.00       0.00       0.00       2.27       1.49       2.19       3.68        1.60    13.50   0.614
  379                        6.00       0.00       0.00       2.07       1.49       2.39       3.88        0.53     4.33   0.647
  380                        6.00       0.00       0.00       2.14       1.49       2.33       3.82        0.83     6.88   0.636
  381                        6.00       0.00       0.00       2.21       1.49       2.25       3.74        1.22    10.23   0.624
  382                        6.00       0.00       0.00       2.14       1.49       2.33       3.82        0.83     6.88   0.636
  383                        6.00       0.00       0.00       2.14       1.49       2.33       3.82        0.83     6.88   0.636
  384                        6.00       0.00       0.00       2.10       1.49       2.37       3.86        0.63     5.18   0.643
  385                        6.00       0.00       0.00       2.07       1.49       2.39       3.88        0.53     4.33   0.647
  386                        6.00       0.00       0.00       2.27       1.49       2.19       3.68        1.60    13.50   0.614
  387                        6.00       0.00       0.00       2.14       1.49       2.33       3.82        0.83     6.88   0.636
  388                        6.00       0.00       0.00       2.27       1.49       2.19       3.68        1.60    13.50   0.614
  389                        6.00       0.00       0.00       2.77       1.49       1.69       3.18        6.13    48.64   0.530
  390                        6.00       0.00       0.00       3.18       1.49       1.27       2.76       12.58    87.73   0.460
  391                        6.00       0.00       0.00       3.18       1.48       1.08       2.57       16.73   110.78   0.428
  392                        6.00       0.00       0.00       2.99       1.49       1.48       2.97        9.02    67.07   0.494
  393                        6.00       0.00       0.00       2.78       1.49       1.68       3.17        6.21    49.14   0.529
  
  
  ****************************
  Subcatchment Washoff Summary
  ****************************
  
  ----------------------------------
                                 TSS
  Subcatchment                   lbs
  ----------------------------------
  3                          160.000
  4                           50.000
  8                           90.000
  9                           90.000
  10                          90.000
  11                          90.000
  12                         120.000
  13                         160.000
  14                          40.000
  15                          50.000
  16                          50.000
  17                           0.000
  18                          50.000
  19                          50.000
  20                          50.000
  21                         480.000
  22                          40.000
  23                          40.000
  24                          50.000
  25                          20.000
  26                          20.000
  27                          50.000
  28                          40.000
  29                          20.000
  30                          20.000
  31                          20.000
  32                          40.000
  33                          20.000
  34                          50.000
  35                          50.000
  36                         160.000
  37                         120.000
  38                         120.000
  39                         160.000
  40                         160.000
  41                         160.000
  42                         160.000
  44                           0.000
  45                          50.000
  46                          50.000
  47                          50.000
  48                          50.000
  49                          50.000
  50                          50.000
  51                          50.000
  52                          50.000
  53                          50.000
  54                          50.000
  55                          50.000
  56                          50.000
  57                          50.000
  58                          50.000
  59                          50.000
  60                          50.000
  61                          50.000
  62                          50.000
  63                          50.000
  64                          50.000
  65                          50.000
  66                          50.000
  67                          50.000
  83                          50.000
  297                         50.000
  298                         50.000
  299                         50.000
  300                         50.000
  301                         50.000
  302                         50.000
  303                        160.000
  304                         50.000
  305                         50.000
  306                         50.000
  307                         50.000
  308                         50.000
  309                         50.000
  310                         50.000
  311                         50.000
  312                         50.000
  313                         50.000
  314                         50.000
  315                        120.000
  316                        160.000
  317                         80.000
  318                        160.000
  319                        120.000
  320                         80.000
  321                        160.000
  322                          0.000
  323                        120.000
  324                        120.000
  325                         50.000
  326                          0.000
  327                          0.000
  328                         50.000
  329                        160.000
  330                        160.000
  331                        160.000
  332                        240.000
  333                         50.000
  334                          0.000
  335                          0.000
  336                          0.000
  337                          0.000
  338                          0.000
  339                          0.000
  340                          0.000
  341                          0.000
  342                         50.000
  343                         50.000
  344                         50.000
  345                          0.000
  346                         50.000
  347                         50.000
  348                        120.000
  349                        120.000
  350                        120.000
  351                        120.000
  352                        420.000
  353                        180.000
  354                        240.000
  355                          0.000
  356                         50.000
  357                          0.000
  358                          0.000
  359                        240.000
  360                        120.000
  361                        180.000
  362                        120.000
  363                        160.000
  364                        160.000
  365                        240.000
  366                        240.000
  367                        160.000
  368                        120.000
  369                         80.000
  370                        120.000
  371                         50.000
  372                         80.000
  373                         80.000
  374                         50.000
  375                         50.000
  376                        120.000
  377                        160.000
  378                        160.000
  379                         50.000
  380                         80.000
  381                        120.000
  382                         80.000
  383                         80.000
  384                         60.000
  385                         50.000
  386                        160.000
  387                         80.000
  388                        160.000
  389                        710.000
  390                       1680.000
  391                       2400.000
  392                       1120.000
  393                        720.000
  ----------------------------------
  System                   19200.000
  
  
  ******************
  Node Depth Summary
  ******************
  
  ---------------------------------------------------------------------------------
                                 Average  Maximum  Maximum  Time of Max    Reported
                                   Depth    Depth      HGL   Occurrence   Max Depth
  Node                 Type         Feet     Feet     Feet  days hr:min        Feet
  ---------------------------------------------------------------------------------
  43                   JUNCTION     2.91     6.06    17.06     0  12:00        6.06
  68                   JUNCTION    11.00    22.00    46.00     0  06:40       22.00
  69                   JUNCTION    10.07    22.00    46.00     0  06:35       22.00
  70                   JUNCTION    10.07    22.00    46.00     0  06:35       22.00
  71                   JUNCTION    10.08    22.00    46.00     0  06:35       22.00
  72                   JUNCTION    10.08    22.00    46.00     0  06:35       22.00
  73                   JUNCTION    10.01    22.00    46.00     0  06:35       22.00
  74                   JUNCTION    10.00    22.00    46.00     0  09:24       22.00
  75                   JUNCTION    10.24    22.00    45.00     0  06:35       22.00
  76                   JUNCTION    10.23    22.00    45.00     0  06:35       22.00
  77                   JUNCTION    10.22    22.00    45.00     0  08:23       22.00
  78                   JUNCTION    10.24    22.00    45.00     0  06:35       22.00
  79                   JUNCTION    10.23    22.00    45.00     0  06:35       22.00
  80                   JUNCTION    10.24    22.00    45.00     0  06:35       22.00
  81                   JUNCTION    10.24    22.00    45.00     0  06:35       22.00
  82                   JUNCTION    10.14    22.00    45.00     0  11:19       22.00
  84                   JUNCTION    10.23    22.00    45.00     0  06:35       22.00
  85                   JUNCTION    10.21    22.00    45.00     0  08:25       22.00
  86                   JUNCTION    10.24    22.00    45.00     0  06:35       22.00
  87                   JUNCTION    10.24    22.00    45.00     0  06:35       22.00
  88                   JUNCTION    10.22    22.00    45.00     0  06:35       22.00
  89                   JUNCTION    10.22    22.00    45.00     0  06:35       22.00
  90                   JUNCTION     9.86    21.94    44.94     0  11:19       21.94
  91                   JUNCTION    10.97    22.00    46.00     0  07:20       22.00
  92                   JUNCTION    10.77    22.00    46.00     0  07:59       22.00
  93                   JUNCTION    10.93    22.00    46.00     0  07:08       22.00
  94                   JUNCTION    10.55    22.00    46.00     0  08:50       21.98
  95                   JUNCTION    10.97    22.00    46.00     0  06:18       22.00
  96                   JUNCTION    10.98    22.00    46.00     0  06:18       22.00
  97                   JUNCTION    10.97    22.00    46.00     0  06:18       22.00
  98                   JUNCTION    10.98    22.00    46.00     0  06:18       22.00
  99                   JUNCTION    10.97    22.00    46.00     0  06:18       22.00
  100                  JUNCTION    10.97    22.00    46.00     0  06:18       22.00
  101                  JUNCTION    10.98    22.00    46.00     0  06:18       22.00
  102                  JUNCTION    10.98    22.00    46.00     0  06:18       22.00
  103                  JUNCTION    10.98    22.00    46.00     0  06:18       22.00
  104                  JUNCTION    10.98    22.00    46.00     0  06:18       22.00
  105                  JUNCTION    10.98    22.00    46.00     0  06:18       22.00
  106                  JUNCTION    10.99    22.00    46.00     0  06:37       22.00
  107                  JUNCTION    11.00    22.00    46.00     0  06:38       22.00
  108                  JUNCTION    11.00    22.00    46.00     0  06:40       22.00
  109                  JUNCTION    11.00    22.00    46.00     0  06:40       22.00
  110                  JUNCTION    13.96    22.00    46.00     0  06:14       22.00
  111                  JUNCTION    12.80    22.00    46.00     0  06:46       22.00
  112                  JUNCTION    13.39    22.00    46.00     0  06:40       22.00
  113                  JUNCTION    12.19    22.00    46.00     0  06:49       22.00
  114                  JUNCTION    12.19    22.00    46.00     0  06:58       22.00
  115                  JUNCTION    11.54    22.00    46.00     0  07:20       22.00
  116                  JUNCTION    11.54    22.00    46.00     0  07:08       22.00
  117                  JUNCTION    10.49    22.00    44.00     0  08:09       22.00
  118                  JUNCTION     9.57    22.00    44.00     0  10:51       22.00
  119                  JUNCTION     8.16    22.00    44.00     0  10:57       21.25
  120                  JUNCTION     6.07    22.00    44.00     0  11:26       16.37
  121                  JUNCTION     2.68    11.56    33.56     0  11:01        7.97
  122                  JUNCTION     3.30    10.46    31.46     0  11:01        8.44
  123                  JUNCTION     3.43     8.25    28.25     0  10:46        8.24
  124                  JUNCTION     3.05     7.06    26.06     0  10:46        7.04
  125                  JUNCTION     2.81     5.72    23.72     0  10:47        5.70
  126                  JUNCTION     9.41    21.79    44.79     0  11:02       21.74
  127                  JUNCTION     8.52    20.91    43.91     0  11:02       20.76
  128                  JUNCTION     8.84    22.00    45.00     0  10:41       22.00
  129                  JUNCTION     9.53    22.00    45.00     0  09:06       22.00
  130                  JUNCTION     9.53    22.00    45.00     0  09:06       22.00
  131                  JUNCTION     1.81     7.24    30.24     0  11:19        6.76
  132                  JUNCTION     2.37     8.24    30.24     0  11:19        7.76
  133                  JUNCTION     9.51    21.98    44.98     0  11:02       21.95
  134                  JUNCTION    10.00    22.00    45.00     0  08:15       22.00
  135                  JUNCTION    10.00    22.00    45.00     0  07:27       22.00
  136                  JUNCTION    10.00    22.00    45.00     0  06:37       22.00
  137                  JUNCTION     9.87    22.00    45.00     0  06:37       22.00
  138                  JUNCTION     9.92    22.00    44.00     0  08:22       22.00
  139                  JUNCTION     9.15    21.24    43.24     0  11:59       21.24
  140                  JUNCTION     8.00    19.63    41.63     0  12:00       19.63
  141                  JUNCTION     2.62     5.89    20.89     0  10:47        5.87
  142                  JUNCTION     2.43     5.60    21.60     0  10:47        5.57
  143                  JUNCTION     2.29     5.17    22.17     0  10:46        5.15
  144                  JUNCTION     8.04    19.79    41.79     0  12:00       19.79
  145                  JUNCTION     0.99     4.56    27.56     0  12:00        4.55
  146                  JUNCTION     0.96     4.82    26.82     0  12:00        4.81
  147                  JUNCTION     3.07    12.88    35.88     0  12:00       12.86
  148                  JUNCTION     3.24    13.65    36.65     0  12:00       13.63
  149                  JUNCTION     3.02    12.73    35.73     0  12:00       12.70
  150                  JUNCTION     2.50    10.82    33.82     0  12:00       10.78
  151                  JUNCTION     2.76    11.78    34.78     0  12:00       11.75
  152                  JUNCTION    10.00    22.00    45.00     0  06:38       22.00
  153                  JUNCTION    10.01    22.00    45.00     0  06:37       22.00
  154                  JUNCTION    10.01    22.00    45.00     0  06:38       22.00
  155                  JUNCTION     2.72     8.46    30.46     0  11:02        7.68
  156                  JUNCTION     5.13    18.88    41.88     0  11:20       14.11
  157                  JUNCTION     7.66    21.52    45.52     0  11:30       20.96
  158                  JUNCTION     8.56    20.24    44.24     0  11:20       20.22
  159                  JUNCTION     9.14    22.00    46.00     0  09:02       22.00
  160                  JUNCTION     7.66    21.52    45.52     0  11:30       20.96
  161                  JUNCTION     7.22    20.66    43.66     0  11:32       18.90
  162                  JUNCTION     5.11    17.78    40.78     0  11:19       15.28
  163                  JUNCTION    10.58    22.00    46.00     0  08:00       22.00
  164                  JUNCTION     8.80    22.00    46.00     0  07:45       22.00
  165                  JUNCTION     8.02    22.00    46.00     0  06:58       22.00
  166                  JUNCTION     7.77    22.00    46.00     0  06:57       22.00
  167                  JUNCTION     7.25    22.00    46.00     0  06:56       22.00
  168                  JUNCTION     6.60    22.00    46.00     0  06:56       22.00
  169                  JUNCTION     7.62    22.00    44.50     0  06:42       22.00
  170                  JUNCTION     7.22    22.00    44.50     0  06:42       22.00
  171                  JUNCTION     6.97    22.00    44.50     0  06:56       22.00
  172                  JUNCTION     6.41    22.00    44.50     0  06:57       21.00
  173                  JUNCTION     6.97    22.00    43.00     0  09:34       22.00
  174                  JUNCTION     7.45    22.00    42.00     0  06:57       21.62
  175                  JUNCTION     7.79    22.00    41.00     0  09:34       21.33
  176                  JUNCTION     8.09    22.00    41.00     0  08:01       22.00
  177                  JUNCTION     9.01    22.00    39.00     0  07:29       22.00
  178                  JUNCTION     3.36    11.47    27.47     0  11:43       10.55
  179                  JUNCTION     3.69    10.28    25.28     0  11:43        9.48
  180                  JUNCTION     7.88    22.00    46.00     0  08:00       22.00
  181                  JUNCTION     7.96    22.00    46.00     0  08:00       22.00
  182                  JUNCTION     7.53    22.00    46.00     0  08:00       22.00
  183                  JUNCTION     6.80    22.00    46.00     0  08:41       21.99
  184                  JUNCTION     6.79    22.00    46.00     0  08:46       22.00
  185                  JUNCTION     6.52    22.00    46.00     0  09:03       22.00
  186                  JUNCTION     6.47    22.00    46.00     0  11:07       21.56
  187                  JUNCTION     6.27    22.00    46.00     0  08:25       21.79
  188                  JUNCTION     5.89    22.00    46.00     0  08:32       22.00
  189                  JUNCTION     6.61    22.00    45.00     0  08:22       22.00
  190                  JUNCTION     6.55    22.00    45.00     0  08:48       22.00
  191                  JUNCTION     6.50    22.00    45.00     0  08:48       21.97
  192                  JUNCTION     6.33    21.97    44.97     0  11:13       21.46
  193                  JUNCTION     6.38    22.00    45.00     0  09:40       21.74
  194                  JUNCTION     5.37    22.00    45.00     0  10:59       19.36
  195                  JUNCTION     5.89    21.07    43.07     0  11:18       19.78
  196                  JUNCTION     5.60    20.92    43.92     0  11:18       19.82
  197                  JUNCTION     7.12    22.00    42.00     0  09:40       21.90
  198                  JUNCTION     7.06    22.00    43.00     0  09:40       22.00
  199                  JUNCTION     5.72    20.96    42.96     0  11:28       19.42
  200                  JUNCTION     3.39    12.78    34.78     0  10:59       12.73
  201                  JUNCTION     3.33    12.10    34.10     0  11:00       12.09
  202                  JUNCTION     4.42    15.85    37.85     0  12:02       15.73
  203                  JUNCTION     0.86     3.78    25.78     0  11:19        3.75
  204                  JUNCTION     8.21    22.00    40.00     0  07:04       22.00
  205                  JUNCTION     0.39     2.38    24.38     0  11:11        2.11
  206                  JUNCTION     0.67     3.18    24.18     0  10:48        3.12
  207                  JUNCTION     0.44     2.19    24.19     0  10:49        2.19
  208                  JUNCTION     0.90     4.35    24.35     0  11:44        4.19
  209                  JUNCTION     1.17     5.40    24.40     0  11:44        5.18
  210                  JUNCTION     1.51     6.55    24.55     0  11:43        6.22
  211                  JUNCTION     0.24     1.72    24.72     0  11:44        1.68
  212                  JUNCTION     1.51     7.34    25.34     0  11:43        6.45
  213                  JUNCTION     1.96     7.69    24.69     0  11:43        7.24
  214                  JUNCTION     2.73     8.96    24.96     0  11:43        8.32
  215                  JUNCTION     3.33     9.18    24.18     0  12:00        9.00
  216                  JUNCTION     0.49     2.19    24.19     0  11:59        2.19
  217                  JUNCTION     0.71     1.87    24.87     0  11:18        1.84
  218                  JUNCTION     1.82     6.34    29.34     0  12:00        6.34
  219                  JUNCTION     2.10     7.61    30.61     0  11:59        7.60
  220                  JUNCTION     2.15     7.81    30.81     0  12:00        7.81
  221                  JUNCTION     1.87     6.54    29.54     0  12:00        6.54
  222                  JUNCTION     1.87     6.54    29.54     0  12:00        6.54
  223                  JUNCTION     0.75     2.12    25.12     0  11:08        1.98
  224                  JUNCTION     7.05    22.00    45.00     0  10:04       22.00
  225                  JUNCTION     4.81    19.78    41.78     0  11:21       14.65
  226                  JUNCTION     3.91    17.24    40.24     0  11:21       13.58
  227                  JUNCTION     3.73    22.00    45.00     0  11:20       17.42
  228                  JUNCTION     3.34    20.30    43.30     0  11:21       12.74
  229                  JUNCTION     0.81     1.70    24.70     0  11:58        1.69
  230                  JUNCTION     2.80     9.25    32.25     0  11:22        8.38
  231                  JUNCTION     2.76     8.83    31.83     0  11:22        8.16
  232                  JUNCTION     2.48     7.30    30.30     0  11:22        6.89
  233                  JUNCTION     2.65     8.22    31.22     0  11:22        7.82
  234                  JUNCTION     4.85    22.00    44.00     0  11:21       17.43
  235                  JUNCTION     3.74    22.00    45.00     0  11:41       15.99
  236                  JUNCTION     4.93    22.00    44.00     0  11:21       17.26
  237                  JUNCTION     4.78    19.87    41.87     0  11:43       16.82
  238                  JUNCTION     3.86    19.83    42.83     0  11:21       13.44
  239                  JUNCTION     3.85    19.37    42.37     0  11:41       15.61
  240                  JUNCTION     3.90    17.78    40.78     0  11:21       13.87
  241                  JUNCTION     4.74    20.54    42.54     0  11:21       14.74
  242                  JUNCTION     4.70    20.45    42.45     0  11:21       15.06
  243                  JUNCTION     4.65    20.25    42.25     0  11:22       14.46
  244                  JUNCTION     3.88    19.54    42.54     0  11:22       13.53
  245                  JUNCTION     3.88    18.81    41.81     0  11:22       13.38
  246                  JUNCTION     3.89    17.09    40.09     0  11:22       12.81
  247                  JUNCTION     3.89    17.54    40.54     0  11:22       12.76
  248                  JUNCTION     4.91    20.06    42.06     0  12:00       20.05
  249                  JUNCTION     4.03    18.67    41.67     0  12:00       18.65
  250                  JUNCTION     3.24    15.42    38.42     0  12:00       15.40
  251                  JUNCTION     1.69     7.04    29.04     0  11:59        7.04
  252                  JUNCTION     3.60    15.52    37.52     0  12:00       15.52
  253                  JUNCTION     3.58    15.44    37.44     0  12:00       15.44
  254                  JUNCTION     3.29    14.20    36.20     0  12:00       14.19
  255                  JUNCTION     1.20     5.83    27.83     0  11:59        5.59
  256                  JUNCTION     1.17     5.73    27.73     0  11:59        5.53
  257                  JUNCTION     1.17     5.74    27.74     0  11:59        5.47
  258                  JUNCTION     1.01     5.38    27.38     0  11:58        5.06
  259                  JUNCTION     1.20     5.85    27.85     0  11:59        5.53
  260                  JUNCTION     2.56    11.56    33.56     0  11:59       11.55
  261                  JUNCTION     1.14     5.64    27.64     0  11:59        5.56
  262                  JUNCTION     2.68     5.78    19.78     0  10:47        5.77
  263                  JUNCTION     2.25     5.65    18.65     0  12:00        5.64
  264                  JUNCTION     3.04     7.67    21.67     0  11:58        7.39
  265                  JUNCTION     3.04     7.27    20.67     0  11:58        7.04
  266                  JUNCTION     2.67     6.59    19.59     0  11:58        6.44
  267                  JUNCTION     0.94     5.46    26.46     0  11:59        5.25
  268                  JUNCTION     5.24    22.00    44.00     0  11:44       21.98
  269                  JUNCTION     5.17    21.71    43.71     0  11:58       21.68
  270                  JUNCTION     4.09    17.23    39.23     0  11:59       17.12
  271                  JUNCTION     0.95     5.17    27.17     0  11:59        4.96
  272                  JUNCTION     5.25    22.00    44.00     0  11:28       22.00
  273                  JUNCTION     0.21     0.59    22.59     0  12:00        0.59
  274                  JUNCTION     0.62     3.64    25.64     0  11:58        3.19
  275                  JUNCTION     0.42     3.10    25.10     0  11:59        2.06
  276                  JUNCTION     0.47     4.97    26.97     0  11:50        3.47
  277                  JUNCTION     0.87     5.96    27.96     0  11:43        4.78
  278                  JUNCTION     1.75     6.12    23.12     0  11:59        6.12
  279                  JUNCTION     2.19     6.72    22.72     0  12:00        6.71
  280                  JUNCTION     1.74     6.27    21.27     0  11:56        6.25
  281                  JUNCTION     2.19     7.14    21.14     0  11:56        7.13
  282                  JUNCTION     1.75     6.33    21.33     0  11:56        6.32
  283                  JUNCTION     1.35     5.43    21.43     0  11:56        5.41
  284                  JUNCTION     7.02    21.12    35.12     0  11:59       21.12
  285                  JUNCTION     7.57    22.00    35.00     0  09:41       22.00
  286                  JUNCTION     6.28    19.55    31.55     0  12:00       19.54
  287                  JUNCTION     7.58    22.00    36.00     0  08:55       22.00
  288                  JUNCTION     4.97    21.39    33.39     0  12:00       21.38
  289                  JUNCTION     4.93    19.99    30.99     0  12:00       19.99
  290                  JUNCTION     4.51    19.44    31.44     0  12:00       19.43
  291                  JUNCTION     2.08     4.69    14.69     0  12:00        4.68
  292                  JUNCTION     2.00     6.43    20.43     0  11:56        6.42
  293                  JUNCTION     6.06    20.24    33.24     0  12:00       20.23
  294                  JUNCTION     9.74    22.00    45.00     0  06:38       22.00
  295                  JUNCTION     9.99    22.00    44.00     0  06:37       22.00
  1                    OUTFALL      6.00     6.00     3.00     0  00:00        6.00
  hughes_street_outfall STORAGE      2.17     4.63    12.63     0  12:00        4.63
  5                    STORAGE      2.50     5.32     8.32     0  12:00        5.32
  6                    STORAGE      3.02     6.63    18.63     0  11:59        6.62
  7                    STORAGE      3.70     9.31    23.81     0  11:58        9.01
  296                  STORAGE      5.52     6.84     4.84     0  12:01        6.84
  
  
  *******************
  Node Inflow Summary
  *******************
  
  -------------------------------------------------------------------------------------------------
                                  Maximum  Maximum                  Lateral       Total        Flow
                                  Lateral    Total  Time of Max      Inflow      Inflow     Balance
                                   Inflow   Inflow   Occurrence      Volume      Volume       Error
  Node                 Type           CFS      CFS  days hr:min    10^6 gal    10^6 gal     Percent
  -------------------------------------------------------------------------------------------------
  43                   JUNCTION      0.00   572.33     0  11:59           0          90       0.223
  68                   JUNCTION     13.50    13.53     0  12:00         1.6         1.8       0.635
  69                   JUNCTION     10.23    10.23     0  12:00        1.22        1.22      -0.002
  70                   JUNCTION      3.47     9.80     0  06:26       0.424       0.772       0.062
  71                   JUNCTION      7.72     7.75     0  12:00       0.928        1.05       0.014
  72                   JUNCTION     13.50    13.50     0  12:00         1.6         1.6       0.003
  73                   JUNCTION      4.33     4.33     0  12:00       0.527       0.527      -0.014
  74                   JUNCTION     13.50    14.72     0  06:25         1.6        2.24       0.000
  75                   JUNCTION      0.00    14.60     0  06:26           0        2.15       0.069
  76                   JUNCTION     13.50    13.50     0  12:00         1.6         1.6       0.028
  77                   JUNCTION      0.00    13.11     0  06:31           0       0.796       0.290
  78                   JUNCTION      7.72     7.72     0  12:00       0.928       0.928       0.040
  79                   JUNCTION      0.00     6.71     0  06:31           0        0.31       0.569
  80                   JUNCTION      7.72     7.72     0  12:00       0.928       0.928       0.035
  81                   JUNCTION      4.33     4.33     0  12:00       0.527       0.527       0.065
  82                   JUNCTION      0.00    24.34     0  06:31           0        1.53       0.122
  84                   JUNCTION      0.00     3.71     0  06:26           0       0.145       1.119
  85                   JUNCTION      0.00    11.76     0  06:31           0       0.756       0.240
  86                   JUNCTION      0.00     4.15     0  06:28           0       0.169       0.971
  87                   JUNCTION      7.72     7.72     0  12:00       0.928       0.928       0.040
  88                   JUNCTION      0.00     2.48     0  06:22           0       0.143       0.779
  89                   JUNCTION      4.33     4.33     0  12:00       0.527       0.527       0.076
  90                   JUNCTION      0.00    24.08     0  06:31           0         2.1       0.245
  91                   JUNCTION     10.23    17.52     0  06:18        1.22        2.79       0.984
  92                   JUNCTION      4.33    25.87     0  06:18       0.527        6.79       0.544
  93                   JUNCTION     13.50    13.53     0  12:00         1.6        2.63       0.679
  94                   JUNCTION      4.33    17.98     0  06:17       0.527        5.25       0.538
  95                   JUNCTION      1.74     1.74     0  12:00       0.215        0.22       2.158
  96                   JUNCTION      1.74     1.82     0  06:18       0.215       0.278       6.123
  97                   JUNCTION      4.33     4.33     0  12:00       0.527       0.531       0.882
  98                   JUNCTION      4.33     4.37     0  12:00       0.527       0.649       2.493
  99                   JUNCTION      3.47     3.47     0  12:00       0.424       0.429       1.101
  100                  JUNCTION      3.47     3.49     0  12:00       0.424       0.458       2.039
  101                  JUNCTION      1.74     2.09     0  06:18       0.215       0.278       6.095
  102                  JUNCTION      1.74     1.78     0  12:00       0.215       0.278       6.139
  103                  JUNCTION      3.47     3.47     0  12:00       0.424       0.429       1.098
  104                  JUNCTION      1.74     1.74     0  12:00       0.215        0.22       2.159
  105                  JUNCTION      1.74     2.58     0  06:18       0.215       0.317       0.000
  106                  JUNCTION      3.47     7.06     0  06:18       0.424       0.682       2.693
  107                  JUNCTION      4.33     8.03     0  06:18       0.527       0.804       1.143
  108                  JUNCTION      4.33     9.14     0  06:18       0.527       0.856       2.216
  109                  JUNCTION     10.23    10.25     0  12:00        1.22        1.42       0.978
  110                  JUNCTION     14.33    14.33     0  12:00        6.45        6.45       0.091
  111                  JUNCTION      4.33    13.05     0  06:14       0.527        4.91       0.209
  112                  JUNCTION      4.33    12.12     0  06:14       0.527        4.86       0.210
  113                  JUNCTION      4.33     4.33     0  12:00       0.527       0.538       2.022
  114                  JUNCTION      4.33    14.87     0  06:14       0.527        5.08       0.380
  115                  JUNCTION      4.33    16.69     0  06:15       0.527        5.47       0.260
  116                  JUNCTION      4.33     4.33     0  12:00       0.527       0.532       0.964
  117                  JUNCTION      4.33    31.64     0  06:15       0.527         7.6       0.456
  118                  JUNCTION      0.00    57.08     0  06:14           0        7.58       0.083
  119                  JUNCTION      4.33    52.08     0  06:14       0.527        8.59       0.011
  120                  JUNCTION      0.00    84.53     0  11:26           0        9.64       0.161
  121                  JUNCTION      0.00    87.30     0  11:01           0        14.6       0.198
  122                  JUNCTION      0.00   153.58     0  11:02           0        15.6       0.105
  123                  JUNCTION      0.00    99.28     0  11:03           0        19.1       0.168
  124                  JUNCTION      0.00   126.47     0  11:18           0        22.6       0.100
  125                  JUNCTION      0.00   139.44     0  11:01           0        24.1       0.137
  126                  JUNCTION      0.00    18.66     0  06:37           0         2.9       0.046
  127                  JUNCTION      0.00    24.25     0  11:02           0        4.48      -0.022
  128                  JUNCTION     13.50    13.50     0  12:00         1.6         1.6      -0.001
  129                  JUNCTION      4.33     4.33     0  12:00       0.527       0.527       0.040
  130                  JUNCTION      4.33     4.33     0  12:00       0.527       0.527       0.040
  131                  JUNCTION      4.33     4.33     0  12:00       0.527       0.527       0.035
  132                  JUNCTION      4.33     4.33     0  12:00       0.527       0.527       0.071
  133                  JUNCTION      0.00     7.08     0  09:06           0       0.903       0.125
  134                  JUNCTION      4.33    10.54     0  06:31       0.527        0.88       0.194
  135                  JUNCTION      0.00     8.92     0  06:32           0       0.328       0.522
  136                  JUNCTION      6.88    11.84     0  06:31       0.829        1.11       0.167
  137                  JUNCTION     20.38    20.40     0  12:00        2.43        2.72       0.032
  138                  JUNCTION     10.23    21.56     0  06:34        1.22        3.25       0.113
  139                  JUNCTION      4.33    21.75     0  06:34       0.527        3.33       0.031
  140                  JUNCTION      4.33    22.62     0  11:53       0.527        4.39       0.044
  141                  JUNCTION      0.00   204.12     0  10:47           0        34.4       0.043
  142                  JUNCTION      0.00   168.94     0  10:46           0        28.4       0.041
  143                  JUNCTION      0.00   157.03     0  10:46           0        26.8       0.061
  144                  JUNCTION      4.33     4.33     0  12:00       0.527       0.527      -0.051
  145                  JUNCTION     13.50    13.50     0  12:00         1.6         1.6       0.034
  146                  JUNCTION     13.50    13.50     0  12:00         1.6         1.6       0.013
  147                  JUNCTION      4.33     4.33     0  12:00       0.527       0.527       0.000
  148                  JUNCTION     10.23    10.23     0  12:00        1.22        1.22      -0.011
  149                  JUNCTION      0.00    14.61     0  11:56           0        1.75       0.033
  150                  JUNCTION      4.33    29.19     0  11:56       0.527        3.49       0.009
  151                  JUNCTION     10.23    10.23     0  12:00        1.22        1.22      -0.006
  152                  JUNCTION      4.33     4.59     0  06:31       0.527       0.529       0.081
  153                  JUNCTION     10.23    10.23     0  12:00        1.22        1.22       0.031
  154                  JUNCTION      4.33     4.33     0  12:00       0.527       0.527       0.046
  155                  JUNCTION      4.33     5.27     0  11:02       0.527       0.528       0.189
  156                  JUNCTION      4.33     8.78     0  11:29       0.527        0.53       0.172
  157                  JUNCTION      4.33     7.60     0  06:14       0.527       0.529       0.079
  158                  JUNCTION      4.33     6.02     0  06:15       0.527        0.53       0.222
  159                  JUNCTION     13.50    13.50     0  12:00         1.6        1.61       0.131
  160                  JUNCTION      4.33     7.60     0  06:14       0.527       0.529       0.079
  161                  JUNCTION      4.33     9.84     0  06:14       0.527       0.532       0.466
  162                  JUNCTION      4.33    19.11     0  11:29       0.527       0.533      -0.044
  163                  JUNCTION      4.33     4.33     0  12:00       0.527       0.532       0.690
  164                  JUNCTION     59.14    59.14     0  12:00        12.1        12.1      -0.303
  165                  JUNCTION      0.00   233.36     0  10:52           0        12.7      -0.836
  166                  JUNCTION      0.00   725.03     0  11:52           0        16.7      -0.824
  167                  JUNCTION      0.00   540.22     0  07:34           0        16.5      -0.851
  168                  JUNCTION      0.00   501.87     0  11:56           0        16.3      -0.056
  169                  JUNCTION      0.00   542.70     0  07:41           0        16.5      -0.303
  170                  JUNCTION      0.00   700.65     0  07:30           0        15.4       2.146
  171                  JUNCTION      0.00   403.81     0  08:16           0        13.8       1.519
  172                  JUNCTION      0.00   251.46     0  11:02           0        13.4      -0.739
  173                  JUNCTION      0.00   288.31     0  11:41           0        13.2      -0.098
  174                  JUNCTION      0.00   336.30     0  11:15           0        15.1       1.182
  175                  JUNCTION      0.00   324.91     0  11:41           0        17.7      -0.045
  176                  JUNCTION      0.00   476.04     0  11:01           0        15.2       1.231
  177                  JUNCTION      4.33   279.97     0  11:53       0.527        14.8      -1.187
  178                  JUNCTION     13.50    53.86     0  11:00         1.6        13.6       0.240
  179                  JUNCTION      0.00   105.52     0  12:12           0        19.1       0.281
  180                  JUNCTION      4.33    22.41     0  11:14       0.527       0.637      -0.553
  181                  JUNCTION      4.33    22.92     0  11:24       0.527       0.676      -0.849
  182                  JUNCTION      4.33    18.46     0  11:14       0.527       0.629       0.048
  183                  JUNCTION      4.33    25.61     0  11:30       0.527       0.699      -0.792
  184                  JUNCTION      4.33    19.44     0  11:30       0.527       0.637      -0.728
  185                  JUNCTION      4.33    13.20     0  11:31       0.527       0.586       0.249
  186                  JUNCTION      4.33    26.00     0  11:19       0.527        1.17      -0.215
  187                  JUNCTION      4.33    24.87     0  11:33       0.527        0.71      -2.691
  188                  JUNCTION      4.33    27.00     0  09:35       0.527        0.72      -4.187
  189                  JUNCTION      4.33    30.48     0  11:55       0.527       0.715      -2.683
  190                  JUNCTION      4.33     9.66     0  11:23       0.527       0.538       0.099
  191                  JUNCTION      4.33    15.06     0  11:54       0.527        1.07       0.298
  192                  JUNCTION      0.00    38.54     0  11:54           0        1.64       0.222
  193                  JUNCTION      4.33    13.06     0  11:50       0.527       0.546       0.811
  194                  JUNCTION      0.00    27.11     0  11:41           0       0.203       0.591
  195                  JUNCTION      4.33    20.60     0  10:56       0.527       0.577       0.162
  196                  JUNCTION     13.50    22.56     0  11:19         1.6         1.6       0.262
  197                  JUNCTION     13.50    24.29     0  11:42         1.6         1.6       0.584
  198                  JUNCTION     13.50    13.50     0  12:00         1.6         1.6       0.191
  199                  JUNCTION      4.33    23.83     0  10:55       0.527       0.578      -0.551
  200                  JUNCTION      4.33     4.66     0  11:46       0.527       0.528      -0.084
  201                  JUNCTION      0.00    25.21     0  11:00           0        3.48       0.017
  202                  JUNCTION     19.75    38.78     0  11:46        2.33           5       0.064
  203                  JUNCTION      6.88    19.65     0  11:00       0.829        2.69      -0.240
  204                  JUNCTION      0.00   961.65     0  11:10           0        18.2       3.488
  205                  JUNCTION      4.33    13.10     0  11:10       0.527       0.544      -0.003
  206                  JUNCTION      4.33    24.27     0  11:12       0.527         1.6      -0.021
  207                  JUNCTION      4.33     4.33     0  12:00       0.527       0.527       0.016
  208                  JUNCTION      4.33    33.60     0  12:12       0.527        2.11      -0.205
  209                  JUNCTION      0.00    40.51     0  12:10           0        2.64      -0.234
  210                  JUNCTION      0.00    46.64     0  12:11           0        3.34      -0.103
  211                  JUNCTION      4.33     5.24     0  11:44       0.527       0.527      -0.040
  212                  JUNCTION      4.33     4.33     0  12:00       0.527       0.527      -0.112
  213                  JUNCTION      0.00    49.17     0  12:11           0        3.68      -0.025
  214                  JUNCTION      0.00    48.94     0  12:11           0         4.2       0.115
  215                  JUNCTION      0.00    96.45     0  11:49           0        10.2       0.180
  216                  JUNCTION      0.00    67.34     0  11:44           0           7      -0.037
  217                  JUNCTION      0.00    36.46     0  11:52           0        4.34       0.002
  218                  JUNCTION      0.00    30.87     0  11:59           0        3.71       0.015
  219                  JUNCTION     10.23    17.11     0  12:00        1.22        2.05       0.000
  220                  JUNCTION      6.88     6.88     0  12:00       0.829       0.829       0.002
  221                  JUNCTION      6.88     6.88     0  12:00       0.829       0.829      -0.012
  222                  JUNCTION      6.88     6.88     0  12:00       0.829       0.829      -0.012
  223                  JUNCTION      5.18     5.18     0  12:00       0.628       0.628      -0.095
  224                  JUNCTION     35.96    35.96     0  12:00        4.36        4.36       0.099
  225                  JUNCTION      6.88     6.88     0  12:00       0.829       0.831       0.515
  226                  JUNCTION      0.00    57.64     0  11:41           0        5.77      -0.022
  227                  JUNCTION     10.23   260.43     0  11:20        1.22        12.9       0.028
  228                  JUNCTION     19.75   158.45     0  11:42        2.33        15.2       0.062
  229                  JUNCTION      5.00   160.54     0  11:22        2.96        21.8       0.001
  230                  JUNCTION      6.88     6.88     0  12:00       0.829       0.829       0.086
  231                  JUNCTION     10.23    18.05     0  11:21        1.22        2.05       0.067
  232                  JUNCTION      0.00   154.67     0  11:22           0        18.9       0.001
  233                  JUNCTION     13.50    13.50     0  12:00         1.6         1.6       0.070
  234                  JUNCTION     13.50    20.23     0  11:59         1.6         1.6       0.409
  235                  JUNCTION      0.00   132.17     0  11:58           0        3.23       0.291
  236                  JUNCTION     13.50    13.50     0  12:00         1.6         1.6       0.201
  237                  JUNCTION      0.00    23.92     0  11:30           0         1.6       0.531
  238                  JUNCTION      4.33    12.46     0  11:21       0.527       0.529       0.130
  239                  JUNCTION     19.75   100.79     0  11:41        2.33        8.57       0.354
  240                  JUNCTION      0.00    18.14     0  11:41           0        1.01       0.777
  241                  JUNCTION      6.88     6.88     0  12:00       0.829       0.829       0.302
  242                  JUNCTION      0.00     5.78     0  11:21           0      0.0183      18.316
  243                  JUNCTION      0.00     3.92     0  06:35           0      0.0138      28.243
  244                  JUNCTION      0.00     4.22     0  06:39           0      0.0146      10.418
  245                  JUNCTION      0.00    10.90     0  06:39           0      0.0796       2.647
  246                  JUNCTION      0.00    10.13     0  06:32           0       0.153       1.654
[...]
  141                         5.45      5.99      6.35     19.74         4.25
  142                         6.03      6.35      6.62     20.55         4.37
  143                         6.51      6.62      7.35      0.19         1.67
  144                         6.69      6.81      7.28      0.10         1.53
  145                         7.13      7.28      7.77      0.14         1.43
  146                         7.63      7.77      7.78     20.77         5.74
  148                         8.66     16.86      8.73     20.65        12.19
  149                         3.14      3.14      3.49      0.01         0.15
  150                         6.68      6.68     15.73      0.24         1.25
  151                         9.25      9.51      9.26      6.02         4.08
  152                         7.68      8.30      7.69      5.93         3.81
  153                         6.96      7.49      6.98      6.21         3.88
  154                         7.52      7.53      7.52      6.38         4.00
  155                         7.03      7.52     15.50      1.37         2.19
  156                         6.88      7.35     15.50      0.74         2.02
  157                         6.93      7.46      6.98      5.71         3.78
  158                         6.56      7.25     10.60      0.93         2.15
  159                         7.61      7.96      9.61      1.70         2.66
  160                         7.62      7.62      7.62      6.56         4.12
  161                         7.53      7.62      7.86      4.04         3.72
  162                         7.63      7.63      7.63      6.69         4.25
  163                         7.62      7.63      7.62      7.33         4.89
  164                         7.36      7.42      9.78      0.34         0.82
  165                         7.86      7.92      9.78      0.13         0.90
  166                         7.34      7.39      8.72      0.14         0.91
  167                         9.26     13.07      9.26     21.81         9.68
  168                         8.56      8.59     10.66      3.66         3.17
  169                         7.80      7.87     10.93      0.08         0.58
  170                         9.67      9.70     10.66      2.54         2.13
  171                         6.69      6.70      6.69      6.65         4.81
  172                         6.69      6.69      7.89      4.31         4.24
  173                         6.69      6.69      7.40      9.26         0.37
  174                         7.29      7.40     11.55      0.78         0.45
  175                         7.57      7.78      8.32      0.45         1.51
  176                         7.34      7.55      8.29      0.07         1.44
  177                         2.89      7.40      2.89      9.26         6.64
  178                         2.89      2.89      7.01      0.01         0.01
  179                         0.01      0.01      0.01      4.29         0.01
  182                         0.01      0.01      0.39      0.01         0.01
  183                         0.01      0.01      0.44      0.01         0.01
  184                         0.44      0.44      2.24      0.01         0.01
  185                         2.24      2.24      3.05      0.01         0.01
  186                         3.05      3.05      3.51      0.01         0.01
  187                         3.51      3.51      4.08      0.01         0.01
  188                         4.12      4.12      5.16      0.01         0.01
  189                         0.01      0.01      3.51      0.01         0.01
  190                         5.51      5.56      5.51      7.10         5.54
  191                         5.22      5.51      5.22      7.74         5.38
  192                         0.01      5.22      0.01      7.97         4.42
  194                         0.01      0.01      3.94      0.01         0.01
  195                         3.94      3.94      4.23      0.78         0.71
  196                         3.47      3.49      3.47      2.76         2.29
  197                         6.57      6.57      7.45      0.01         0.01
  198                         0.14      0.14      4.07      0.01         0.01
  199                         5.22      5.27      5.22      7.10         5.25
  200                         5.22      5.27      5.22      7.10         5.25
  201                         0.01      0.06      0.01      6.78         0.01
  202                         7.71      7.71     10.27      0.01         0.07
  203                         7.71      7.71     10.26      0.01         0.08
  204                         7.52      7.55      7.53      0.39         1.64
  205                         7.53      7.53      7.71      4.15         2.82
  206                         7.51      7.51      7.53      1.40         2.38
  207                         7.51      7.51     10.07      0.01         0.01
  208                         7.51      7.52      7.51      0.42         1.35
  209                         5.63      5.63      5.64      5.07         3.50
  210                         7.72      8.24      7.72     11.03         8.05
  211                         5.53      5.64      5.53      9.81         5.10
  212                         5.41      5.53      5.41      9.45         4.99
  213                         7.64      7.65      7.64      6.51         5.28
  214                         7.72      7.72     10.30      0.01         0.05
  215                         5.08      5.41      5.09      9.92         4.95
  216                         4.33      5.09      4.33     10.42         4.74
  217                         0.01      4.33      0.01     10.00         1.12
  218                         7.00      7.00      7.00      7.03         6.26
  219                         6.98      7.00      6.98      7.75         6.95
  220                         6.98      6.99      6.98      8.06         6.99
  221                         7.57      7.57     10.17      1.28         0.28
  222                         5.40      5.47      5.41      7.02         4.86
  223                        10.19     10.20     10.19      8.00         7.30
  224                         7.57      7.57     10.19      0.57         0.29
  225                         5.66      5.66      7.23      0.01         0.01
  226                         5.29      5.66      5.29      8.25         5.51
  227                         5.29      5.29      6.35      3.60         3.53
  228                         4.53      6.35      4.53      8.58         5.68
  229                         2.90      4.53      2.90      8.35         3.35
  230                         2.78      2.78      2.89      6.93         0.01
  231                         2.89      2.89      2.91      3.44         0.38
  232                         2.90      2.91      2.90      6.30         2.52
  233                         2.90      2.90      7.45      0.01         0.01
  234                         0.14      4.53      0.14      8.30         2.96
  235                         6.43      6.43      6.43      6.51         6.05
  236                         6.35      6.43      6.35      8.16         6.40
  237                         2.91      2.92      2.91      6.60         2.92
  238                         2.89      2.91      2.89      6.61         2.90
  239                         2.78      5.49      2.78      9.10         3.71
  240                         2.78      2.78      8.86      0.01         0.01
  243                         0.01      0.01      0.01      3.21         0.01
  244                         0.01      0.01      0.01      3.34         0.01
  246                         6.68      6.68      6.68      7.61         6.68
  247                         2.29      2.29      6.68      0.01         0.01
  248                         6.68      6.69      6.68      7.54         6.68
  249                         6.56      6.68      6.56      8.47         6.63
  250                         2.36      6.56      2.36      8.70         5.07
  251                         2.81      3.47      2.81      5.29         3.21
  252                         2.73      2.81      2.73      3.53         2.78
  253                         2.36      2.36      7.55      0.01         0.01
  254                         2.16      2.73      2.16      4.29         2.58
  255                         2.16      2.16      3.04      0.01         0.01
  257                         5.54      5.54      6.39      0.01         0.01
  258                         6.39      6.39      7.34      3.56         3.49
  259                         0.01      0.01      7.55      0.01         0.01
  260                         0.39      0.39      8.86      0.01         0.01
  261                         1.33      1.33      8.80      0.01         0.01
  262                         1.99      1.99      8.86      0.01         0.01
  263                         6.00      6.00      6.72      4.12         4.09
  264                         5.12      5.12      6.00      0.01         0.01
  265                         4.35      4.35      5.12      0.01         0.01
  266                         5.12      5.12      6.00      0.01         0.01
  267                         6.03      6.03      6.72      2.90         2.81
  268                         6.96      6.96      7.54      2.85         2.40
  269                         7.40      7.54      7.88      7.19         7.02
  272                         6.30      6.59      6.78      6.37         5.97
  273                         5.92      5.92      6.59      3.91         3.77
  274                         5.87      5.87      6.59      0.01         0.01
  275                         6.97      6.97      7.25      5.30         2.64
  276                         6.86      6.86      7.25      0.01         0.01
  277                         7.25      7.25      7.54      6.72         6.70
  278                         7.01      7.01      7.73      5.82         0.04
  279                         7.68      7.73      7.68      6.33         3.95
  284                         2.62      2.62      8.80      0.01         0.01
  
  
  ***************************
  Link Pollutant Load Summary
  ***************************
  
  ----------------------------------
                                 TSS
  Link                           lbs
  ----------------------------------
  37                         130.872
  38                         163.198
  39                         233.337
  40                         376.920
  41                          67.978
  42                         581.674
  45                         268.897
  46                          63.523
  47                          99.284
  48                         171.519
  49                         239.848
  50                         384.972
  51                         557.375
  52                         916.501
  53                         305.123
  54                          67.598
  55                         112.567
  56                          99.841
  57                          99.841
  58                         172.537
  59                         143.297
  60                           9.002
  61                          29.212
  62                          31.933
  63                          22.381
  64                          16.924
  65                          58.352
  66                          24.992
  67                           9.311
  68                          13.261
  69                          19.029
  70                          36.121
  71                          22.662
  72                         110.350
  73                         141.431
  74                          88.045
  75                         232.638
  76                         191.664
  77                          90.038
  78                         204.386
  79                          33.466
  80                          81.395
  81                         129.535
  82                          50.479
  83                          46.938
  84                         226.683
  85                         340.802
  86                         363.961
  87                         321.625
  88                         153.760
  89                         611.797
  90                         857.313
  91                         919.089
  92                        1048.581
  93                        1146.673
  94                        2580.022
  95                        2784.166
  96                        3192.518
  97                        3445.278
  98                        1125.879
  99                        1214.193
  100                       1368.330
  101                         59.181
  102                         57.907
  103                         73.474
  104                        171.025
  105                         73.474
  106                        178.066
  107                        405.184
  108                        195.076
  109                        141.397
  110                        204.217
  111                        407.124
  112                        696.563
  113                        737.259
  114                        867.198
  115                         66.216
  116                          0.000
  117                          0.000
  118                        135.872
  119                         64.862
  120                        175.561
  121                        129.784
  122                        301.194
  123                         68.822
  124                        127.946
  125                        121.548
  126                         48.694
  127                         50.408
  128                        154.510
  129                          3.310
  130                         70.611
  131                         54.321
  132                         60.623
  133                         66.211
  134                         60.132
  135                        761.706
  136                        799.899
  137                       1336.610
  138                       1199.461
  139                       1189.562
  140                       1211.198
  141                       1182.480
  142                       1200.149
  143                       1303.856
  144                       1277.863
  145                       1449.729
  146                       1476.438
  148                       1219.883
  149                       1504.888
  150                         54.571
  151                         62.118
  152                         48.600
  153                         55.685
  154                         63.978
  155                         99.662
  156                         60.724
  157                         66.195
  158                         54.682
  159                         57.929
  160                         65.596
  161                        163.984
  162                         64.070
  163                        115.451
  164                        173.227
  165                         62.729
  166                         27.680
  167                        534.636
  168                        191.310
  169                         57.932
  170                        170.297
  171                         60.919
  172                        390.419
  173                        346.014
  174                        583.402
  175                       1792.473
  176                       1321.445
  177                        338.984
  178                        324.102
  179                       3481.529
  180                          0.000
  181                         75.268
  182                        110.415
  183                        164.655
  184                        219.789
  185                        374.711
  186                        432.144
  187                        247.895
  188                         66.666
  189                         57.787
  190                        103.713
  191                        224.167
  192                        369.382
  193                        426.628
  194                        537.084
  195                       1055.576
  196                       1687.711
  197                        212.287
  198                        165.201
  199                        103.197
  200                         97.245
  201                         69.628
  202                         87.048
  203                         46.693
  204                         60.564
  205                        432.137
  206                        297.725
  207                         64.471
  208                         82.210
  209                        577.136
  210                        539.424
  211                        864.653
  212                        998.439
  213                         75.754
  214                         93.657
  215                       1362.129
  216                       1587.307
  217                       1865.330
  218                         94.570
  219                        214.461
  220                        175.342
  221                        179.773
  222                        414.950
  223                        173.904
  224                        193.503
  225                        144.692
  226                        299.955
  227                        298.959
  228                        505.400
  229                        284.460
  230                         50.231
  231                         18.812
  232                         59.162
  233                        347.749
  234                        224.195
  235                         67.980
  236                        228.952
  237                         57.098
  238                         57.097
  239                        186.965
  240                        198.666
  241                       3749.445
  242                       3745.601
  243                       4604.539
  244                       4611.667
  245                       4853.469
  246                        138.582
  247                        281.409
  248                        134.799
  249                        438.921
  250                        504.428
  251                       2881.062
  252                       3014.916
  253                        503.902
  254                       3516.414
  255                       3804.737
  256                       8553.681
  257                          0.000
  258                          0.000
  259                          0.000
  260                          0.000
  261                          0.000
  262                          0.000
  263                        119.606
  264                         68.602
  265                         55.659
  266                         56.793
  267                          0.000
  268                          0.000
  269                        885.317
  270                      1.002e+04
  271                      1.085e+04
  272                        495.465
  273                        275.232
  274                        145.234
  275                        456.600
  276                        104.498
  277                        688.959
  278                        284.193
  279                        267.732
  280                       2568.128
  281                      1.505e+04
  282                      1.717e+04
  283                      1.249e+04
  284                          0.000
  

  Analysis begun on:  Thu Apr 15 01:18:12 2021
  Analysis ended on:  Thu Apr 15 01:18:17 2021
  Total elapsed time: 00:00:05