
  EPA STORM WATER MANAGEMENT MODEL - VERSION 5.1 (Build 5.1.015)
  --------------------------------------------------------------

  WARNING 04: minimum elevation drop used for Conduit 37
  WARNING 04: minimum elevation drop used for Conduit 38
  WARNING 04: minimum elevation drop used for Conduit 39
  WARNING 04: minimum elevation drop used for Conduit 40
  WARNING 04: minimum elevation drop used for Conduit 41
  WARNING 04: minimum elevation drop used for Conduit 45
  WARNING 04: minimum elevation drop used for Conduit 46
  WARNING 04: minimum elevation drop used for Conduit 47
  WARNING 04: minimum elevation drop used for Conduit 48
  WARNING 04: minimum elevation drop used for Conduit 49
  WARNING 04: minimum elevation drop used for Conduit 50
  WARNING 04: minimum elevation drop used for Conduit 51
  WARNING 04: minimum elevation drop used for Conduit 52
  WARNING 04: minimum elevation drop used for Conduit 53
  WARNING 04: minimum elevation drop used for Conduit 54
  WARNING 04: minimum elevation drop used for Conduit 55
  WARNING 04: minimum elevation drop used for Conduit 56
  WARNING 04: minimum elevation drop used for Conduit 57
  WARNING 04: minimum elevation drop used for Conduit 58
  WARNING 04: minimum elevation drop used for Conduit 59
  WARNING 04: minimum elevation drop used for Conduit 60
  WARNING 04: minimum elevation drop used for Conduit 61
  WARNING 04: minimum elevation drop used for Conduit 62
  WARNING 04: minimum elevation drop used for Conduit 63
  WARNING 04: minimum elevation drop used for Conduit 64
  WARNING 04: minimum elevation drop used for Conduit 65
  WARNING 04: minimum elevation drop used for Conduit 66
  WARNING 04: minimum elevation drop used for Conduit 67
  WARNING 04: minimum elevation drop used for Conduit 68
  WARNING 04: minimum elevation drop used for Conduit 69
  WARNING 04: minimum elevation drop used for Conduit 70
  WARNING 04: minimum elevation drop used for Conduit 71
  WARNING 04: minimum elevation drop used for Conduit 72
  WARNING 04: minimum elevation drop used for Conduit 73
  WARNING 04: minimum elevation drop used for Conduit 74
  WARNING 04: minimum elevation drop used for Conduit 75
  WARNING 04: minimum elevation drop used for Conduit 76
  WARNING 04: minimum elevation drop used for Conduit 77
  WARNING 04: minimum elevation drop used for Conduit 78
  WARNING 04: minimum elevation drop used for Conduit 79
  WARNING 04: minimum elevation drop used for Conduit 80
  WARNING 04: minimum elevation drop used for Conduit 81
  WARNING 04: minimum elevation drop used for Conduit 82
  WARNING 04: minimum elevation drop used for Conduit 83
  WARNING 04: minimum elevation drop used for Conduit 84
  WARNING 04: minimum elevation drop used for Conduit 85
  WARNING 04: minimum elevation drop used for Conduit 86
  WARNING 04: minimum elevation drop used for Conduit 87
  WARNING 04: minimum elevation drop used for Conduit 88
  WARNING 04: minimum elevation drop used for Conduit 90
  WARNING 04: minimum elevation drop used for Conduit 91
  WARNING 04: minimum elevation drop used for Conduit 92
  WARNING 04: minimum elevation drop used for Conduit 93
  WARNING 04: minimum elevation drop used for Conduit 98
  WARNING 04: minimum elevation drop used for Conduit 99
  WARNING 04: minimum elevation drop used for Conduit 103
  WARNING 04: minimum elevation drop used for Conduit 104
  WARNING 04: minimum elevation drop used for Conduit 105
  WARNING 04: minimum elevation drop used for Conduit 106
  WARNING 04: minimum elevation drop used for Conduit 107
  WARNING 04: minimum elevation drop used for Conduit 108
  WARNING 04: minimum elevation drop used for Conduit 109
  WARNING 04: minimum elevation drop used for Conduit 110
  WARNING 04: minimum elevation drop used for Conduit 112
  WARNING 04: minimum elevation drop used for Conduit 113
  WARNING 04: minimum elevation drop used for Conduit 115
  WARNING 04: minimum elevation drop used for Conduit 118
  WARNING 04: minimum elevation drop used for Conduit 119
  WARNING 04: minimum elevation drop used for Conduit 120
  WARNING 04: minimum elevation drop used for Conduit 121
  WARNING 04: minimum elevation drop used for Conduit 123
  WARNING 04: minimum elevation drop used for Conduit 124
  WARNING 04: minimum elevation drop used for Conduit 125
  WARNING 04: minimum elevation drop used for Conduit 126
  WARNING 04: minimum elevation drop used for Conduit 134
  WARNING 04: minimum elevation drop used for Conduit 135
  WARNING 04: minimum elevation drop used for Conduit 136
  WARNING 04: minimum elevation drop used for Conduit 137
  WARNING 04: minimum elevation drop used for Conduit 138
  WARNING 04: minimum elevation drop used for Conduit 140
  WARNING 04: minimum elevation drop used for Conduit 141
  WARNING 04: minimum elevation drop used for Conduit 142
  WARNING 04: minimum elevation drop used for Conduit 146
  WARNING 04: minimum elevation drop used for Conduit 151
  WARNING 04: minimum elevation drop used for Conduit 152
  WARNING 04: minimum elevation drop used for Conduit 153
  WARNING 04: minimum elevation drop used for Conduit 154
  WARNING 04: minimum elevation drop used for Conduit 157
  WARNING 04: minimum elevation drop used for Conduit 160
  WARNING 04: minimum elevation drop used for Conduit 162
  WARNING 04: minimum elevation drop used for Conduit 163
  WARNING 04: minimum elevation drop used for Conduit 167
  WARNING 04: minimum elevation drop used for Conduit 171
  WARNING 04: minimum elevation drop used for Conduit 173
  WARNING 04: minimum elevation drop used for Conduit 177
  WARNING 04: minimum elevation drop used for Conduit 190
  WARNING 04: minimum elevation drop used for Conduit 191
  WARNING 04: minimum elevation drop used for Conduit 192
  WARNING 04: minimum elevation drop used for Conduit 199
  WARNING 04: minimum elevation drop used for Conduit 200
  WARNING 04: minimum elevation drop used for Conduit 201
  WARNING 04: minimum elevation drop used for Conduit 204
  WARNING 04: minimum elevation drop used for Conduit 205
  WARNING 04: minimum elevation drop used for Conduit 206
  WARNING 04: minimum elevation drop used for Conduit 208
  WARNING 04: minimum elevation drop used for Conduit 209
  WARNING 04: minimum elevation drop used for Conduit 210
  WARNING 04: minimum elevation drop used for Conduit 211
  WARNING 04: minimum elevation drop used for Conduit 212
  WARNING 04: minimum elevation drop used for Conduit 213
  WARNING 04: minimum elevation drop used for Conduit 215
  WARNING 04: minimum elevation drop used for Conduit 216
  WARNING 04: minimum elevation drop used for Conduit 217
  WARNING 04: minimum elevation drop used for Conduit 218
  WARNING 04: minimum elevation drop used for Conduit 219
  WARNING 04: minimum elevation drop used for Conduit 220
  WARNING 04: minimum elevation drop used for Conduit 222
  WARNING 04: minimum elevation drop used for Conduit 223
  WARNING 04: minimum elevation drop used for Conduit 226
  WARNING 04: minimum elevation drop used for Conduit 228
  WARNING 04: minimum elevation drop used for Conduit 229
  WARNING 04: minimum elevation drop used for Conduit 230
  WARNING 04: minimum elevation drop used for Conduit 231
  WARNING 04: minimum elevation drop used for Conduit 232
  WARNING 04: minimum elevation drop used for Conduit 234
  WARNING 04: minimum elevation drop used for Conduit 235
  WARNING 04: minimum elevation drop used for Conduit 236
  WARNING 04: minimum elevation drop used for Conduit 237
  WARNING 04: minimum elevation drop used for Conduit 238
  WARNING 04: minimum elevation drop used for Conduit 239
  WARNING 04: minimum elevation drop used for Conduit 246
  WARNING 04: minimum elevation drop used for Conduit 248
  WARNING 04: minimum elevation drop used for Conduit 249
  WARNING 04: minimum elevation drop used for Conduit 250
  WARNING 04: minimum elevation drop used for Conduit 279
  
  *********************************************************
  NOTE: The summary statistics displayed in this report are
  based on results found at every computational time step,  
  not just on results from each reporting time step.
  *********************************************************
  
  ****************
  Analysis Options
  ****************
  Flow Units ............... CFS
  Process Models:
    Rainfall/Runoff ........ YES
    RDII ................... NO
    Snowmelt ............... NO
    Groundwater ............ NO
    Flow Routing ........... YES
    Ponding Allowed ........ NO
    Water Quality .......... YES
  Infiltration Method ...... HORTON
  Flow Routing Method ...... DYNWAVE
  Surcharge Method ......... SLOT
  Starting Date ............ 04/08/2021 00:00:00
  Ending Date .............. 04/08/2021 22:00:00
  Antecedent Dry Days ...... 0.0
  Report Time Step ......... 00:05:00
  Wet Time Step ............ 00:01:00
  Dry Time Step ............ 00:05:00
  Routing Time Step ........ 15.00 sec
  Variable Time Step ....... YES
  Maximum Trials ........... 8
  Number of Threads ........ 1
  Head Tolerance ........... 0.005000 ft
  
  
  **************************        Volume         Depth
  Runoff Quantity Continuity     acre-feet        inches
  **************************     ---------       -------
  Initial LID Storage ......         3.471         0.020
  Total Precipitation ......      1045.000         6.000
  Evaporation Loss .........         0.000         0.000
  Infiltration Loss ........       444.254         2.551
  Surface Runoff ...........       572.741         3.288
  Final Storage ............        20.644         0.119
  Continuity Error (%) .....         1.033
  
  
  **************************           TSS
  Runoff Quality Continuity            lbs
  **************************    ----------
  Initial Buildup ..........     19200.000
  Surface Buildup ..........      2279.384
  Wet Deposition ...........         0.000
  Sweeping Removal .........         0.000
  Infiltration Loss ........         0.000
  BMP Removal ..............       534.826
  Surface Runoff ...........     18225.174
  Remaining Buildup ........      2719.384
  Continuity Error (%) .....         0.000
  
  
  **************************        Volume        Volume
  Flow Routing Continuity        acre-feet      10^6 gal
  **************************     ---------     ---------
  Dry Weather Inflow .......         0.000         0.000
  Wet Weather Inflow .......       572.718       186.629
  Groundwater Inflow .......         0.000         0.000
  RDII Inflow ..............         0.000         0.000
  External Inflow ..........        56.337        18.358
  External Outflow .........       478.963       156.077
  Flooding Loss ............       134.518        43.835
  Evaporation Loss .........         0.000         0.000
  Exfiltration Loss ........         0.000         0.000
  Initial Stored Volume ....         4.891         1.594
  Final Stored Volume ......        21.004         6.845
  Continuity Error (%) .....        -0.085
  
  
  **************************           TSS
  Quality Routing Continuity           lbs
  **************************    ----------
  Dry Weather Inflow .......         0.000
  Wet Weather Inflow .......     18187.634
  Groundwater Inflow .......         0.000
  RDII Inflow ..............         0.000
  External Inflow ..........         0.000
  External Outflow .........     16145.041
  Flooding Loss ............       583.609
  Exfiltration Loss ........         0.000
  Mass Reacted .............         0.000
  Initial Stored Mass ......         0.000
  Final Stored Mass ........       247.556
  Continuity Error (%) .....         6.661
  
  
  *************************
  Highest Continuity Errors
  *************************
  Node 243 (27.46%)
  Node 242 (25.53%)
  Node 102 (5.77%)
  Node 96 (5.75%)
  Node 101 (5.70%)
  
  
  ***************************
  Time-Step Critical Elements
  ***************************
  Link 92 (31.49%)
  Link 254 (12.39%)
  Link 91 (8.31%)
  Link 253 (6.18%)
  Link 217 (4.07%)
  
  
  ********************************
  Highest Flow Instability Indexes
  ********************************
  Link 83 (64)
  Link 84 (64)
  Link 87 (64)
  Link 81 (58)
  Link 79 (56)
  
  
  *************************
  Routing Time Step Summary
  *************************
  Minimum Time Step           :     0.50 sec
  Average Time Step           :     8.95 sec
  Maximum Time Step           :    15.00 sec
  Percent in Steady State     :     0.00
  Average Iterations per Step :     5.03
  Percent Not Converging      :    38.12
  Time Step Frequencies       :
     15.000 -  7.597 sec      :    61.65 %
      7.597 -  3.848 sec      :    24.53 %
      3.848 -  1.949 sec      :     7.43 %
      1.949 -  0.987 sec      :     3.14 %
      0.987 -  0.500 sec      :     3.24 %
  
  
  ***************************
  Subcatchment Runoff Summary
  ***************************
  
  ------------------------------------------------------------------------------------------------------------------------------
                            Total      Total      Total      Total     Imperv       Perv      Total       Total     Peak  Runoff
                           Precip      Runon       Evap      Infil     Runoff     Runoff     Runoff      Runoff   Runoff   Coeff
  Subcatchment                 in         in         in         in         in         in         in    10^6 gal      CFS
  ------------------------------------------------------------------------------------------------------------------------------
  3                          6.00       0.00       0.00       2.27       1.49       2.19       3.68        1.60    13.50   0.614
  4                          6.00       0.00       0.00       2.07       1.49       2.39       3.88        0.53     4.33   0.647
  8                          6.00       0.00       0.00       2.16       1.49       2.31       3.80        0.93     7.72   0.633
  9                          6.00       0.00       0.00       2.16       1.49       2.31       3.80        0.93     7.72   0.633
  10                         6.00       0.00       0.00       2.16       1.49       2.31       3.80        0.93     7.72   0.633
  11                         6.00       0.00       0.00       2.17       1.49       2.30       2.83        0.69     5.79   0.472
  12                         6.00       0.00       0.00       2.22       1.49       2.25       2.79        0.91     7.67   0.466
  13                         6.00       0.00       0.00       2.27       1.49       2.19       3.68        1.60    13.50   0.614
  14                         6.00       0.00       0.00       2.05       1.49       2.41       3.90        0.42     3.47   0.651
  15                         6.00       0.00       0.00       6.00       0.00       0.00       0.00        0.00     0.00   0.000
  16                         6.00       0.00       0.00       6.00       0.00       0.00       0.00        0.00     0.00   0.000
  17                         6.00       0.00       0.00       6.00       0.00       0.00       0.00        0.00     0.00   0.000
  18                         6.00       0.00       0.00       2.07       1.49       2.39       3.88        0.53     4.33   0.647
  19                         6.00       0.00       0.00       6.00       0.00       0.00       0.00        0.00     0.00   0.000
  20                         6.00       0.00       0.00       8.57       0.00       0.00       0.00        0.00     0.00   0.000
  21                         6.00       0.00       0.00       2.61       1.49       1.85       3.34        4.36    35.96   0.557
  22                         6.00       0.00       0.00       2.05       1.49       2.41       3.90        0.42     3.47   0.651
  23                         6.00       0.00       0.00       2.05       1.49       2.41       3.90        0.42     3.47   0.651
  24                         6.00       0.00       0.00       2.07       1.49       2.39       3.88        0.53     4.33   0.647
  25                         6.00       0.00       0.00       1.99       1.49       2.47       3.96        0.22     1.74   0.661
  26                         6.00       0.00       0.00       1.99       1.49       2.47       3.96        0.22     1.74   0.661
  27                         6.00       0.00       0.00       2.07       1.49       2.39       3.88        0.53     4.33   0.647
  28                         6.00       0.00       0.00       2.05       1.49       2.41       3.90        0.42     3.47   0.651
  29                         6.00       0.00       0.00       1.99       1.49       2.47       3.96        0.22     1.74   0.661
  30                         6.00       0.00       0.00       1.99       1.49       2.47       3.96        0.22     1.74   0.661
  31                         6.00       0.00       0.00       1.99       1.49       2.47       3.96        0.22     1.74   0.661
  32                         6.00       0.00       0.00       2.05       1.49       2.41       3.90        0.42     3.47   0.651
  33                         6.00       0.00       0.00       1.99       1.49       2.47       3.96        0.22     1.74   0.661
  34                         6.00       0.00       0.00       2.07       1.49       2.39       3.88        0.53     4.33   0.647
  35                         6.00       0.00       0.00       2.07       1.49       2.39       3.88        0.53     4.33   0.647
  36                         6.00       0.00       0.00       2.29       1.49       2.19       2.75        1.19    10.12   0.458
  37                         6.00       0.00       0.00       2.21       1.49       2.25       3.74        1.22    10.23   0.624
  38                         6.00       0.00       0.00       2.21       1.49       2.25       3.74        1.22    10.23   0.624
  39                         6.00       0.00       0.00       2.27       1.49       2.19       3.68        1.60    13.50   0.614
  40                         6.00       0.00       0.00       2.27       1.49       2.19       3.68        1.60    13.50   0.614
  41                         6.00       0.00       0.00       2.29       1.49       2.19       2.74        1.19    10.12   0.457
  42                         6.00       0.00       0.00       2.28       1.49       2.19       2.75        1.19    10.12   0.458
  44                         6.00       0.00       0.00       2.07       1.49       2.39       3.88        0.53     4.33   0.647
  45                         6.00       0.00       0.00       2.09       1.49       2.38       2.90        0.39     3.24   0.483
  46                         6.00       0.00       0.00       2.09       1.49       2.38       2.90        0.39     3.24   0.483
  47                         6.00       0.00       0.00       2.07       1.49       2.39       3.88        0.53     4.33   0.647
  48                         6.00       0.00       0.00       2.07       1.49       2.39       3.88        0.53     4.33   0.647
  49                         6.00       0.00       0.00       2.07       1.49       2.39       3.88        0.53     4.33   0.647
  50                         6.00       0.00       0.00       2.07       1.49       2.39       3.88        0.53     4.33   0.647
  51                         6.00       0.00       0.00       2.07       1.49       2.39       3.88        0.53     4.33   0.647
  52                         6.00       0.00       0.00       2.07       1.49       2.39       3.88        0.53     4.33   0.647
  53                         6.00       0.00       0.00       2.07       1.49       2.39       3.88        0.53     4.33   0.647
  54                         6.00       0.00       0.00       2.07       1.49       2.39       3.88        0.53     4.33   0.647
  55                         6.00       0.00       0.00       2.07       1.49       2.39       3.88        0.53     4.33   0.647
  56                         6.00       0.00       0.00       2.07       1.49       2.39       3.88        0.53     4.33   0.647
  57                         6.00       0.00       0.00       2.07       1.49       2.39       3.88        0.53     4.33   0.647
  58                         6.00       0.00       0.00       2.07       1.49       2.39       3.88        0.53     4.33   0.647
  59                         6.00       0.00       0.00       2.07       1.49       2.39       3.88        0.53     4.33   0.647
  60                         6.00       0.00       0.00       2.07       1.49       2.39       3.88        0.53     4.33   0.647
  61                         6.00       0.00       0.00       2.07       1.49       2.39       3.88        0.53     4.33   0.647
  62                         6.00       0.00       0.00       2.07       1.49       2.39       3.88        0.53     4.33   0.647
  63                         6.00       0.00       0.00       2.07       1.49       2.39       3.88        0.53     4.33   0.647
  64                         6.00       0.00       0.00       2.07       1.49       2.39       3.88        0.53     4.33   0.647
  65                         6.00       0.00       0.00       2.07       1.49       2.39       3.88        0.53     4.33   0.647
  66                         6.00       0.00       0.00       2.07       1.49       2.39       3.88        0.53     4.33   0.647
  67                         6.00       0.00       0.00       2.07       1.49       2.39       3.88        0.53     4.33   0.647
  83                         6.00       0.00       0.00       2.07       1.49       2.39       3.88        0.53     4.33   0.647
  297                        6.00       0.00       0.00       2.07       1.49       2.39       3.88        0.53     4.33   0.647
  298                        6.00       0.00       0.00       2.07       1.49       2.39       3.88        0.53     4.33   0.647
  299                        6.00       0.00       0.00       2.07       1.49       2.39       3.88        0.53     4.33   0.647
  300                        6.00       0.00       0.00       2.07       1.49       2.39       3.88        0.53     4.33   0.647
  301                        6.00       0.00       0.00       2.07       1.49       2.39       3.88        0.53     4.33   0.647
  302                        6.00       0.00       0.00       2.07       1.49       2.39       3.88        0.53     4.33   0.647
  303                        6.00       0.00       0.00       2.27       1.49       2.19       3.68        1.60    13.50   0.614
  304                        6.00       0.00       0.00       2.07       1.49       2.39       3.88        0.53     4.33   0.647
  305                        6.00       0.00       0.00       2.07       1.49       2.39       3.88        0.53     4.33   0.647
  306                        6.00       0.00       0.00       2.07       1.49       2.39       3.88        0.53     4.33   0.647
  307                        6.00       0.00       0.00       2.07       1.49       2.39       3.88        0.53     4.33   0.647
  308                        6.00       0.00       0.00       2.07       1.49       2.39       3.88        0.53     4.33   0.647
  309                        6.00       0.00       0.00       2.07       1.49       2.39       3.88        0.53     4.33   0.647
  310                        6.00       0.00       0.00       2.07       1.49       2.39       3.88        0.53     4.33   0.647
  311                        6.00       0.00       0.00       2.07       1.49       2.39       3.88        0.53     4.33   0.647
  312                        6.00       0.00       0.00       2.07       1.49       2.39       3.88        0.53     4.33   0.647
  313                        6.00       0.00       0.00       2.07       1.49       2.39       3.88        0.53     4.33   0.647
  314                        6.00       0.00       0.00       2.07       1.49       2.39       3.88        0.53     4.33   0.647
  315                        6.00       0.00       0.00       2.21       1.49       2.25       3.74        1.22    10.23   0.624
  316                        6.00       0.00       0.00       2.27       1.49       2.19       3.68        1.60    13.50   0.614
  317                        6.00       0.00       0.00       2.14       1.49       2.33       3.82        0.83     6.88   0.636
  318                        6.00       0.00       0.00       2.27       1.49       2.19       3.68        1.60    13.50   0.614
  319                        6.00       0.00       0.00       2.21       1.49       2.25       3.74        1.22    10.23   0.624
  320                        6.00       0.00       0.00       2.14       1.49       2.33       3.82        0.83     6.88   0.636
  321                        6.00       0.00       0.00       2.27       1.49       2.19       3.68        1.60    13.50   0.614
  322                        6.00       0.00       0.00       2.27       1.49       2.19       3.68        1.60    13.50   0.614
  323                        6.00       0.00       0.00       2.21       1.49       2.25       3.74        1.22    10.23   0.624
  324                        6.00       0.00       0.00       2.21       1.49       2.25       3.74        1.22    10.23   0.624
  325                        6.00       0.00       0.00       2.07       1.49       2.39       3.88        0.53     4.33   0.647
  326                        6.00       0.00       0.00       2.07       1.49       2.39       3.88        0.53     4.33   0.647
  327                        6.00       0.00       0.00       2.27       1.49       2.19       3.68        1.60    13.50   0.614
  328                        6.00       0.00       0.00       2.07       1.49       2.39       3.88        0.53     4.33   0.647
  329                        6.00       0.00       0.00       2.27       1.49       2.19       3.68        1.60    13.50   0.614
  330                        6.00       0.00       0.00       2.27       1.49       2.19       3.68        1.60    13.50   0.614
  331                        6.00       0.00       0.00       2.27       1.49       2.19       3.68        1.60    13.50   0.614
  332                        6.00       0.00       0.00       2.37       1.49       2.09       3.58        2.33    19.75   0.596
  333                        6.00       0.00       0.00       2.07       1.49       2.39       3.88        0.53     4.33   0.647
  334                        6.00       0.00       0.00       2.14       1.49       2.33       3.82        0.83     6.88   0.636
  335                        6.00       0.00       0.00       2.27       1.49       2.19       3.68        1.60    13.50   0.614
  336                        6.00       0.00       0.00       2.14       1.49       2.33       3.82        0.83     6.88   0.636
  337                        6.00       0.00       0.00       2.14       1.49       2.33       3.82        0.83     6.88   0.636
  338                        6.00       0.00       0.00       2.21       1.49       2.25       3.74        1.22    10.23   0.624
  339                        6.00       0.00       0.00       2.27       1.49       2.19       3.68        1.60    13.50   0.614
  340                        6.00       0.00       0.00       2.14       1.49       2.33       3.82        0.83     6.88   0.636
  341                        6.00       0.00       0.00       2.14       1.49       2.33       3.82        0.83     6.88   0.636
  342                        6.00       0.00       0.00       2.07       1.49       2.39       3.88        0.53     4.33   0.647
  343                        6.00       0.00       0.00       2.07       1.49       2.39       3.88        0.53     4.33   0.647
  344                        6.00       0.00       0.00       2.07       1.49       2.39       3.88        0.53     4.33   0.647
  345                        6.00       0.00       0.00       2.07       1.49       2.39       3.88        0.53     4.33   0.647
  346                        6.00       0.00       0.00       2.07       1.49       2.39       3.88        0.53     4.33   0.647
  347                        6.00       0.00       0.00       2.07       1.49       2.39       3.88        0.53     4.33   0.647
  348                        6.00       0.00       0.00       2.21       1.49       2.25       3.74        1.22    10.23   0.624
  349                        6.00       0.00       0.00       2.21       1.49       2.25       3.74        1.22    10.23   0.624
  350                        6.00       0.00       0.00       2.21       1.49       2.25       3.74        1.22    10.23   0.624
  351                        6.00       0.00       0.00       2.21       1.49       2.25       3.74        1.22    10.23   0.624
  352                        6.00       0.00       0.00       2.56       1.49       1.90       2.54        2.90    24.18   0.423
  353                        6.00       0.00       0.00       2.30       1.49       2.16       3.65        1.79    15.10   0.609
  354                        6.00       0.00       0.00       3.03       0.00       0.00       0.00        0.00     0.00   0.000
  355                        6.00       0.00       0.00       2.37       1.49       2.09       3.58        2.33    19.75   0.596
  356                        6.00       0.00       0.00       2.07       1.49       2.39       3.88        0.53     4.33   0.647
  357                        6.00       0.00       0.00       2.07       1.49       2.39       3.88        0.53     4.33   0.647
  358                        6.00       0.00       0.00       2.07       1.49       2.39       3.88        0.53     4.33   0.647
  359                        6.00       0.00       0.00       2.39       1.49       2.08       2.67        1.74    14.80   0.445
  360                        6.00       0.00       0.00       2.21       1.49       2.25       3.74        1.22    10.23   0.624
  361                        6.00       0.00       0.00       2.30       1.49       2.16       3.65        1.79    15.10   0.609
  362                        6.00       0.00       0.00       2.21       1.49       2.25       3.74        1.22    10.23   0.624
  363                        6.00       0.00       0.00       2.27       1.49       2.19       3.68        1.60    13.50   0.614
  364                        6.00       0.00       0.00       2.27       1.49       2.19       3.68        1.60    13.50   0.614
  365                        6.00       0.00       0.00       2.37       1.49       2.09       3.58        2.33    19.75   0.596
  366                        6.00       0.00       0.00       2.37       1.49       2.09       3.58        2.33    19.75   0.596
  367                        6.00       0.00       0.00       2.27       1.49       2.19       3.68        1.60    13.50   0.614
  368                        6.00       0.00       0.00       2.21       1.49       2.25       3.74        1.22    10.23   0.624
  369                        6.00       0.00       0.00       2.14       1.49       2.33       3.82        0.83     6.88   0.636
  370                        6.00       0.00       0.00       2.21       1.49       2.25       3.74        1.22    10.23   0.624
  371                        6.00       0.00       0.00       2.07       1.49       2.39       3.88        0.53     4.33   0.647
  372                        6.00       0.00       0.00       2.14       1.49       2.33       3.82        0.83     6.88   0.636
  373                        6.00       0.00       0.00       2.14       1.49       2.33       3.82        0.83     6.88   0.636
  374                        6.00       0.00       0.00       2.07       1.49       2.39       3.88        0.53     4.33   0.647
  375                        6.00       0.00       0.00       2.07       1.49       2.39       3.88        0.53     4.33   0.647
  376                        6.00       0.00       0.00       2.21       1.49       2.25       3.74        1.22    10.23   0.624
  377                        6.00       0.00       0.00       2.27       1.49       2.19       3.68        1.60    13.50   0.614
  378                        6.00       0.00       0.00       2.27       1.49       2.19       3.68        1.60    13.50   0.614
  379                        6.00       0.00       0.00       2.07       1.49       2.39       3.88        0.53     4.33   0.647
  380                        6.00       0.00       0.00       2.14       1.49       2.33       3.82        0.83     6.88   0.636
  381                        6.00       0.00       0.00       2.21       1.49       2.25       3.74        1.22    10.23   0.624
  382                        6.00       0.00       0.00       2.14       1.49       2.33       3.82        0.83     6.88   0.636
  383                        6.00       0.00       0.00       2.14       1.49       2.33       3.82        0.83     6.88   0.636
  384                        6.00       0.00       0.00       2.10       1.49       2.37       3.86        0.63     5.18   0.643
  385                        6.00       0.00       0.00       2.07       1.49       2.39       3.88        0.53     4.33   0.647
  386                        6.00       0.00       0.00       2.27       1.49       2.19       3.68        1.60    13.50   0.614
  387                        6.00       0.00       0.00       2.14       1.49       2.33       3.82        0.83     6.88   0.636
  388                        6.00       0.00       0.00       2.27       1.49       2.19       3.68        1.60    13.50   0.614
  389                        6.00       0.00       0.00       2.77       1.49       1.69       3.18        6.13    48.64   0.530
  390                        6.00       0.00       0.00       3.18       1.49       1.27       2.76       12.58    87.73   0.460
  391                        6.00       0.00       0.00       3.18       1.48       1.08       2.57       16.73   110.78   0.428
  392                        6.00       0.00       0.00       2.99       1.49       1.48       2.97        9.02    67.07   0.494
  393                        6.00       0.00       0.00       2.78       1.49       1.68       3.17        6.21    49.14   0.529
  

  ***********************
  LID Performance Summary
  ***********************

  --------------------------------------------------------------------------------------------------------------------
                                         Total      Evap     Infil   Surface    Drain    Initial     Final  Continuity
                                        Inflow      Loss      Loss   Outflow   Outflow   Storage   Storage       Error
  Subcatchment      LID Control             in        in        in        in        in        in        in           %
  --------------------------------------------------------------------------------------------------------------------
  11                RailyardInfiltration   1490.99      0.00      8.00   1110.88      0.00      0.00      1.83       24.83
  12                RailyardInfiltration   1508.20      0.00      8.00   1123.61      0.00      0.00      2.07       24.83
  15                RailyardInfiltration      6.00      0.00      6.00      0.00      0.00      0.00      0.00        0.00
  16                RailyardInfiltration      6.00      0.00      6.00      0.00      0.00      0.00      0.00        0.00
  17                RailyardInfiltration      6.00      0.00      6.00      0.00      0.00      0.00      0.00        0.00
  19                RailyardInfiltration      6.00      0.00      6.00      0.00      0.00      0.00      0.00        0.00
  20                RailyardInfiltration      6.00      0.00      8.57      0.00      0.00      2.57      0.00        0.00
  36                RailyardInfiltration   1428.68      0.00      8.00   1063.78      0.00      0.00      2.32       24.82
  41                RailyardInfiltration   1029.36      0.00      8.00    764.35      0.00      0.00      2.23       24.75
  42                RailyardInfiltration   1512.57      0.00      8.00   1126.68      0.00      0.00      2.34       24.83
  45                RailyardInfiltration   1692.49      0.00      8.00   1262.26      0.00      0.00      1.49       24.86
  46                RailyardInfiltration   1692.49      0.00      8.00   1262.26      0.00      0.00      1.49       24.86
  352               RailyardInfiltration   4143.63      0.00      8.00   3098.50      0.00      0.00      3.87       24.94
  354               EvergreenCemetery      6.00      0.00      3.03      0.00      0.00      1.20      4.17       -0.05
  359               RailyardInfiltration   1873.18      0.00      8.00   1396.73      0.00      0.00      2.80       24.86
  
  ****************************
  Subcatchment Washoff Summary
  ****************************
  
  ----------------------------------
                                 TSS
  Subcatchment                   lbs
  ----------------------------------
  3                          160.000
  4                           50.000
  8                           90.000
  9                           90.000
  10                          90.000
  11                          52.474
  12                          73.615
  13                         160.000
  14                          40.000
  15                           0.000
  16                           0.000
  17                           0.000
  18                          50.000
  19                           0.000
  20                           0.000
  21                         480.000
  22                          40.000
  23                          40.000
  24                          50.000
  25                          20.000
  26                          20.000
  27                          50.000
  28                          40.000
  29                          20.000
  30                          20.000
  31                          20.000
  32                          40.000
  33                          20.000
  34                          50.000
  35                          50.000
  36                         101.435
  37                         120.000
  38                         120.000
  39                         160.000
  40                         160.000
  41                          88.007
  42                          96.767
  44                           0.000
  45                          31.887
  46                          30.530
  47                          50.000
  48                          50.000
  49                          50.000
  50                          50.000
  51                          50.000
  52                          50.000
  53                          50.000
  54                          50.000
  55                          50.000
  56                          50.000
  57                          50.000
  58                          50.000
  59                          50.000
  60                          50.000
  61                          50.000
  62                          50.000
  63                          50.000
  64                          50.000
  65                          50.000
  66                          50.000
  67                          50.000
  83                          50.000
  297                         50.000
  298                         50.000
  299                         50.000
  300                         50.000
  301                         50.000
  302                         50.000
  303                        160.000
  304                         50.000
  305                         50.000
  306                         50.000
  307                         50.000
  308                         50.000
  309                         50.000
  310                         50.000
  311                         50.000
  312                         50.000
  313                         50.000
  314                         50.000
  315                        120.000
  316                        160.000
  317                         80.000
  318                        160.000
  319                        120.000
  320                         80.000
  321                        160.000
  322                          0.000
  323                        120.000
  324                        120.000
  325                         50.000
  326                          0.000
  327                          0.000
  328                         50.000
  329                        160.000
  330                        160.000
  331                        160.000
  332                        240.000
  333                         50.000
  334                          0.000
  335                          0.000
  336                          0.000
  337                          0.000
  338                          0.000
  339                          0.000
  340                          0.000
  341                          0.000
  342                         50.000
  343                         50.000
  344                         50.000
  345                          0.000
  346                         50.000
  347                         50.000
  348                        120.000
  349                        120.000
  350                        120.000
  351                        120.000
  352                        285.219
  353                        180.000
  354                          0.000
  355                          0.000
  356                         50.000
  357                          0.000
  358                          0.000
  359                        155.240
  360                        120.000
  361                        180.000
  362                        120.000
  363                        160.000
  364                        160.000
  365                        240.000
  366                        240.000
  367                        160.000
  368                        120.000
  369                         80.000
  370                        120.000
  371                         50.000
  372                         80.000
  373                         80.000
  374                         50.000
  375                         50.000
  376                        120.000
  377                        160.000
  378                        160.000
  379                         50.000
  380                         80.000
  381                        120.000
  382                         80.000
  383                         80.000
  384                         60.000
  385                         50.000
  386                        160.000
  387                         80.000
  388                        160.000
  389                        710.000
  390                       1680.000
  391                       2400.000
  392                       1120.000
  393                        720.000
  ----------------------------------
  System                   18225.174
  
  
  ******************
  Node Depth Summary
  ******************
  
  ---------------------------------------------------------------------------------
                                 Average  Maximum  Maximum  Time of Max    Reported
                                   Depth    Depth      HGL   Occurrence   Max Depth
  Node                 Type         Feet     Feet     Feet  days hr:min        Feet
  ---------------------------------------------------------------------------------
  43                   JUNCTION     2.82     5.88    16.88     0  10:49        5.88
  68                   JUNCTION    10.92    22.00    46.00     0  06:41       22.00
  69                   JUNCTION     9.91    22.00    46.00     0  06:37       22.00
  70                   JUNCTION     9.91    22.00    46.00     0  06:37       22.00
  71                   JUNCTION     9.92    22.00    46.00     0  06:37       22.00
  72                   JUNCTION     9.93    22.00    46.00     0  06:37       22.00
  73                   JUNCTION     9.86    22.00    46.00     0  06:38       22.00
  74                   JUNCTION     9.85    22.00    46.00     0  09:24       22.00
  75                   JUNCTION    10.09    22.00    45.00     0  06:38       22.00
  76                   JUNCTION    10.08    22.00    45.00     0  06:38       22.00
  77                   JUNCTION    10.07    22.00    45.00     0  06:38       22.00
  78                   JUNCTION    10.10    22.00    45.00     0  06:38       22.00
  79                   JUNCTION    10.09    22.00    45.00     0  06:38       22.00
  80                   JUNCTION    10.10    22.00    45.00     0  06:38       22.00
  81                   JUNCTION    10.10    22.00    45.00     0  06:38       22.00
  82                   JUNCTION    10.00    21.98    44.98     0  11:21       21.97
  84                   JUNCTION    10.09    22.00    45.00     0  06:38       22.00
  85                   JUNCTION    10.06    22.00    45.00     0  10:09       22.00
  86                   JUNCTION    10.10    22.00    45.00     0  06:38       22.00
  87                   JUNCTION    10.10    22.00    45.00     0  06:38       22.00
  88                   JUNCTION    10.08    22.00    45.00     0  06:38       22.00
  89                   JUNCTION    10.08    22.00    45.00     0  06:38       22.00
  90                   JUNCTION     9.71    21.87    44.87     0  11:16       21.86
  91                   JUNCTION    10.89    22.00    46.00     0  07:15       22.00
  92                   JUNCTION    10.70    22.00    46.00     0  08:20       22.00
  93                   JUNCTION    10.85    22.00    46.00     0  07:15       22.00
  94                   JUNCTION    10.48    22.00    46.00     0  10:47       21.96
  95                   JUNCTION    10.90    22.00    46.00     0  06:19       22.00
  96                   JUNCTION    10.90    22.00    46.00     0  06:19       22.00
  97                   JUNCTION    10.90    22.00    46.00     0  06:19       22.00
  98                   JUNCTION    10.91    22.00    46.00     0  06:19       22.00
  99                   JUNCTION    10.90    22.00    46.00     0  06:19       22.00
  100                  JUNCTION    10.90    22.00    46.00     0  06:19       22.00
  101                  JUNCTION    10.91    22.00    46.00     0  06:19       22.00
  102                  JUNCTION    10.90    22.00    46.00     0  06:19       22.00
  103                  JUNCTION    10.91    22.00    46.00     0  06:19       22.00
  104                  JUNCTION    10.90    22.00    46.00     0  06:19       22.00
  105                  JUNCTION    10.91    22.00    46.00     0  06:19       22.00
  106                  JUNCTION    10.92    22.00    46.00     0  06:39       22.00
  107                  JUNCTION    10.92    22.00    46.00     0  06:41       22.00
  108                  JUNCTION    10.92    22.00    46.00     0  06:41       22.00
  109                  JUNCTION    10.92    22.00    46.00     0  06:41       22.00
  110                  JUNCTION    13.91    22.00    46.00     0  06:15       22.00
  111                  JUNCTION    12.75    22.00    46.00     0  06:46       22.00
  112                  JUNCTION    13.34    22.00    46.00     0  06:41       22.00
  113                  JUNCTION    12.14    22.00    46.00     0  06:48       22.00
  114                  JUNCTION    12.13    22.00    46.00     0  07:15       22.00
  115                  JUNCTION    11.47    22.00    46.00     0  07:26       22.00
  116                  JUNCTION    11.48    22.00    46.00     0  07:24       22.00
  117                  JUNCTION    10.41    22.00    44.00     0  08:13       22.00
  118                  JUNCTION     9.46    22.00    44.00     0  10:50       21.23
  119                  JUNCTION     7.99    22.00    44.00     0  11:10       20.43
  120                  JUNCTION     5.88    17.47    39.47     0  11:10       14.18
  121                  JUNCTION     2.62     8.12    30.12     0  11:11        7.18
  122                  JUNCTION     3.24     8.45    29.45     0  11:10        8.02
  123                  JUNCTION     3.38     8.01    28.01     0  10:46        8.00
  124                  JUNCTION     3.01     6.86    25.86     0  10:46        6.85
  125                  JUNCTION     2.79     5.55    23.55     0  10:47        5.54
  126                  JUNCTION     9.19    21.56    44.56     0  11:16       21.54
  127                  JUNCTION     8.15    20.19    43.19     0  11:16       20.16
  128                  JUNCTION     8.34    21.01    44.01     0  12:00       21.01
  129                  JUNCTION     9.35    22.00    45.00     0  09:41       22.00
  130                  JUNCTION     9.35    22.00    45.00     0  09:41       22.00
  131                  JUNCTION     1.75     6.36    29.36     0  11:16        6.18
  132                  JUNCTION     2.31     7.36    29.36     0  11:16        7.18
  133                  JUNCTION     9.32    21.92    44.92     0  11:10       21.91
  134                  JUNCTION     9.88    22.00    45.00     0  08:32       22.00
  135                  JUNCTION     9.88    22.00    45.00     0  07:37       22.00
  136                  JUNCTION     9.88    22.00    45.00     0  06:40       22.00
  137                  JUNCTION     9.77    22.00    45.00     0  06:40       22.00
  138                  JUNCTION     9.83    22.00    44.00     0  08:22       22.00
  139                  JUNCTION     9.08    21.23    43.23     0  11:56       21.23
  140                  JUNCTION     7.94    19.60    41.60     0  12:00       19.60
  141                  JUNCTION     2.58     5.69    20.69     0  10:48        5.67
  142                  JUNCTION     2.39     5.37    21.37     0  10:47        5.35
  143                  JUNCTION     2.25     4.96    21.96     0  10:47        4.95
  144                  JUNCTION     7.98    19.76    41.76     0  11:59       19.76
  145                  JUNCTION     0.98     4.47    27.47     0  12:00        4.47
  146                  JUNCTION     0.94     4.66    26.66     0  12:00        4.66
  147                  JUNCTION     3.05    12.78    35.78     0  12:00       12.77
  148                  JUNCTION     3.23    13.56    36.56     0  12:00       13.55
  149                  JUNCTION     3.01    12.61    35.61     0  12:00       12.60
  150                  JUNCTION     2.48    10.65    33.65     0  11:59       10.65
  151                  JUNCTION     2.75    11.63    34.63     0  11:59       11.63
  152                  JUNCTION     9.88    22.00    45.00     0  07:08       22.00
  153                  JUNCTION     9.89    22.00    45.00     0  06:39       22.00
  154                  JUNCTION     9.89    22.00    45.00     0  06:40       22.00
  155                  JUNCTION     2.67     7.58    29.58     0  11:16        7.35
  156                  JUNCTION     4.95    14.21    37.21     0  11:37       13.36
  157                  JUNCTION     7.55    19.54    43.54     0  11:38       19.22
  158                  JUNCTION     8.49    20.19    44.19     0  11:43       20.15
  159                  JUNCTION     9.07    22.00    46.00     0  09:02       22.00
  160                  JUNCTION     7.55    19.54    43.54     0  11:38       19.22
  161                  JUNCTION     7.03    18.79    41.79     0  11:11       17.60
  162                  JUNCTION     4.93    15.37    38.37     0  10:50       13.32
  163                  JUNCTION    10.51    22.00    46.00     0  08:05       22.00
  164                  JUNCTION     8.81    22.00    46.00     0  07:01       22.00
  165                  JUNCTION     8.09    22.00    46.00     0  07:01       22.00
  166                  JUNCTION     7.78    22.00    46.00     0  07:01       22.00
  167                  JUNCTION     7.27    22.00    46.00     0  06:41       22.00
  168                  JUNCTION     6.56    22.00    46.00     0  07:01       22.00
  169                  JUNCTION     7.57    22.00    44.50     0  06:41       22.00
  170                  JUNCTION     7.24    22.00    44.50     0  06:43       22.00
  171                  JUNCTION     7.02    22.00    44.50     0  06:43       22.00
  172                  JUNCTION     6.48    22.00    44.50     0  07:01       21.60
  173                  JUNCTION     7.02    22.00    43.00     0  07:00       21.15
  174                  JUNCTION     7.49    22.00    42.00     0  07:01       22.00
  175                  JUNCTION     7.84    22.00    41.00     0  07:01       21.35
  176                  JUNCTION     8.17    22.00    41.00     0  07:00       22.00
  177                  JUNCTION     9.02    22.00    39.00     0  07:01       22.00
  178                  JUNCTION     3.11     8.47    24.47     0  10:49        8.32
  179                  JUNCTION     3.43     8.29    23.29     0  11:47        8.15
  180                  JUNCTION     7.88    22.00    46.00     0  07:43       22.00
  181                  JUNCTION     7.98    22.00    46.00     0  08:20       22.00
  182                  JUNCTION     7.56    22.00    46.00     0  08:34       22.00
  183                  JUNCTION     6.82    22.00    46.00     0  07:57       21.74
  184                  JUNCTION     6.84    22.00    46.00     0  09:00       21.90
  185                  JUNCTION     6.56    22.00    46.00     0  08:38       22.00
  186                  JUNCTION     6.51    22.00    46.00     0  10:06       21.93
  187                  JUNCTION     6.34    22.00    46.00     0  08:00       20.70
  188                  JUNCTION     5.91    22.00    46.00     0  08:37       20.69
  189                  JUNCTION     6.70    22.00    45.00     0  09:06       21.08
  190                  JUNCTION     6.58    22.00    45.00     0  08:38       22.00
  191                  JUNCTION     6.54    22.00    45.00     0  08:38       21.92
  192                  JUNCTION     6.37    21.96    44.96     0  11:03       21.45
  193                  JUNCTION     6.42    22.00    45.00     0  08:39       21.63
  194                  JUNCTION     5.41    21.80    44.80     0  11:15       19.17
  195                  JUNCTION     5.93    22.00    44.00     0  10:56       19.93
  196                  JUNCTION     5.64    21.21    44.21     0  11:30       19.99
  197                  JUNCTION     7.14    22.00    42.00     0  10:11       21.63
  198                  JUNCTION     7.08    22.00    43.00     0  09:01       22.00
  199                  JUNCTION     5.79    20.39    42.39     0  11:55       19.25
  200                  JUNCTION     3.38    12.54    34.54     0  11:15       11.77
  201                  JUNCTION     3.32    12.08    34.08     0  11:15       11.62
  202                  JUNCTION     4.42    16.01    38.01     0  11:15       15.35
  203                  JUNCTION     0.85     3.58    25.58     0  10:45        3.57
  204                  JUNCTION     8.21    22.00    40.00     0  07:00       21.92
  205                  JUNCTION     0.12     1.32    23.32     0  11:21        1.21
  206                  JUNCTION     0.31     2.20    23.20     0  10:49        2.18
  207                  JUNCTION     0.13     1.21    23.21     0  10:50        1.21
  208                  JUNCTION     0.53     3.39    23.39     0  11:18        3.15
  209                  JUNCTION     0.86     4.18    23.18     0  10:47        4.15
  210                  JUNCTION     1.24     5.21    23.21     0  11:19        5.15
  211                  JUNCTION     0.19     0.52    23.52     0  12:00        0.52
  212                  JUNCTION     1.26     5.44    23.44     0  11:19        5.30
  213                  JUNCTION     1.69     6.18    23.18     0  10:47        6.15
  214                  JUNCTION     2.46     7.22    23.22     0  10:50        7.15
  215                  JUNCTION     3.09     8.17    23.17     0  11:58        8.12
  216                  JUNCTION     0.41     1.17    23.17     0  12:00        1.17
  217                  JUNCTION     0.74     1.98    24.98     0  11:57        1.98
  218                  JUNCTION     1.82     6.35    29.35     0  11:59        6.35
  219                  JUNCTION     2.11     7.62    30.62     0  12:00        7.62
  220                  JUNCTION     2.15     7.83    30.83     0  12:00        7.83
  221                  JUNCTION     1.87     6.56    29.56     0  12:00        6.56
  222                  JUNCTION     1.87     6.56    29.56     0  12:00        6.56
  223                  JUNCTION     0.77     2.11    25.11     0  11:57        2.10
  224                  JUNCTION     7.05    22.00    45.00     0  10:04       22.00
  225                  JUNCTION     4.81    15.07    37.07     0  11:35       14.22
  226                  JUNCTION     3.91    14.55    37.55     0  11:35       13.92
  227                  JUNCTION     3.71    20.63    43.63     0  11:36       16.35
  228                  JUNCTION     3.35    13.52    36.52     0  11:34       13.02
  229                  JUNCTION     0.81     1.70    24.70     0  11:54        1.70
  230                  JUNCTION     2.80     8.79    31.79     0  11:35        8.29
  231                  JUNCTION     2.76     8.43    31.43     0  11:35        8.10
  232                  JUNCTION     2.48     7.15    30.15     0  11:35        6.95
  233                  JUNCTION     2.65     7.95    30.95     0  11:35        7.73
  234                  JUNCTION     4.82    17.37    39.37     0  11:34       16.99
  235                  JUNCTION     3.73    18.88    41.88     0  11:34       15.82
  236                  JUNCTION     4.90    22.00    44.00     0  11:36       15.74
  237                  JUNCTION     4.74    20.21    42.21     0  11:35       16.89
  238                  JUNCTION     3.86    15.14    38.14     0  11:35       13.85
  239                  JUNCTION     3.84    18.58    41.58     0  11:34       15.91
  240                  JUNCTION     3.90    14.75    37.75     0  11:35       12.88
  241                  JUNCTION     4.74    15.24    37.24     0  11:35       14.85
  242                  JUNCTION     4.69    15.14    37.14     0  11:35       14.82
  243                  JUNCTION     4.63    15.14    37.14     0  11:35       14.32
  244                  JUNCTION     3.87    14.16    37.16     0  11:35       13.30
  245                  JUNCTION     3.87    14.05    37.05     0  11:35       13.29
  246                  JUNCTION     3.88    13.75    36.75     0  11:35       13.60
  247                  JUNCTION     3.88    13.76    36.76     0  11:35       13.46
  248                  JUNCTION     4.84    19.64    41.64     0  12:00       19.64
  249                  JUNCTION     3.96    18.25    41.25     0  11:59       18.25
  250                  JUNCTION     3.16    14.97    37.97     0  12:00       14.97
  251                  JUNCTION     1.60     6.52    28.52     0  11:59        6.49
  252                  JUNCTION     3.52    15.07    37.07     0  12:00       15.06
  253                  JUNCTION     3.50    15.00    37.00     0  11:59       15.00
  254                  JUNCTION     3.21    13.73    35.73     0  11:59       13.73
  255                  JUNCTION     1.08     5.11    27.11     0  11:58        5.02
  256                  JUNCTION     1.04     5.02    27.02     0  11:58        4.95
  257                  JUNCTION     1.04     5.01    27.01     0  11:58        4.92
  258                  JUNCTION     0.88     4.60    26.60     0  11:58        4.50
  259                  JUNCTION     1.07     5.10    27.10     0  11:58        5.00
  260                  JUNCTION     2.43    10.90    32.90     0  11:59       10.89
  261                  JUNCTION     1.01     4.99    26.99     0  11:58        4.91
  262                  JUNCTION     2.63     5.61    19.61     0  10:48        5.60
  263                  JUNCTION     2.18     5.47    18.47     0  10:49        5.47
  264                  JUNCTION     2.88     6.95    20.95     0  11:58        6.89
  265                  JUNCTION     2.91     6.71    20.11     0  11:58        6.66
  266                  JUNCTION     2.56     6.18    19.18     0  11:58        6.15
  267                  JUNCTION     0.48     2.10    23.10     0  12:00        2.10
  268                  JUNCTION     5.21    21.98    43.98     0  11:58       21.98
  269                  JUNCTION     5.14    21.68    43.68     0  11:58       21.67
  270                  JUNCTION     4.06    17.09    39.09     0  11:58       17.07
  271                  JUNCTION     0.89     4.78    26.78     0  11:58        4.72
  272                  JUNCTION     5.23    22.00    44.00     0  11:38       22.00
  273                  JUNCTION     0.21     0.59    22.59     0  12:00        0.59
  274                  JUNCTION     0.50     2.56    24.56     0  11:58        2.33
  275                  JUNCTION     0.30     1.32    23.32     0  11:59        1.29
  276                  JUNCTION     0.33     1.76    23.76     0  10:51        1.55
  277                  JUNCTION     0.71     3.90    25.90     0  11:48        3.43
  278                  JUNCTION     1.71     5.96    22.96     0  12:00        5.95
  279                  JUNCTION     2.15     6.55    22.55     0  12:00        6.54
  280                  JUNCTION     1.67     6.10    21.10     0  12:00        6.10
  281                  JUNCTION     2.12     6.97    20.97     0  11:59        6.97
  282                  JUNCTION     1.69     6.17    21.17     0  12:00        6.16
  283                  JUNCTION     1.29     5.26    21.26     0  12:00        5.25
  284                  JUNCTION     5.69    20.98    34.98     0  12:00       20.98
  285                  JUNCTION     6.22    21.87    34.87     0  12:00       21.87
  286                  JUNCTION     4.61    15.59    27.59     0  12:00       15.59
  287                  JUNCTION     6.20    22.00    36.00     0  10:04       22.00
  288                  JUNCTION     4.92    21.28    33.28     0  12:00       21.28
  289                  JUNCTION     4.88    19.88    30.88     0  12:00       19.87
  290                  JUNCTION     4.46    19.33    31.33     0  12:00       19.32
  291                  JUNCTION     2.01     4.55    14.55     0  12:00        4.55
  292                  JUNCTION     1.93     6.27    20.27     0  12:00        6.26
  293                  JUNCTION     4.42    16.36    29.36     0  12:00       16.36
  294                  JUNCTION     9.66    22.00    45.00     0  06:40       22.00
  295                  JUNCTION     9.91    22.00    44.00     0  06:40       22.00
  1                    OUTFALL      6.00     6.00     3.00     0  00:00        6.00
  hughes_street_outfall STORAGE      2.12     4.53    12.53     0  12:00        4.53
  5                    STORAGE      2.45     5.23     8.23     0  12:01        5.23
  6                    STORAGE      2.94     6.44    18.44     0  10:48        6.42
  7                    STORAGE      3.48     8.25    22.75     0  11:58        8.21
  296                  STORAGE      5.49     6.77     4.77     0  12:01        6.77
  
  
  *******************
  Node Inflow Summary
  *******************
  
  -------------------------------------------------------------------------------------------------
                                  Maximum  Maximum                  Lateral       Total        Flow
                                  Lateral    Total  Time of Max      Inflow      Inflow     Balance
                                   Inflow   Inflow   Occurrence      Volume      Volume       Error
  Node                 Type           CFS      CFS  days hr:min    10^6 gal    10^6 gal     Percent
  -------------------------------------------------------------------------------------------------
  43                   JUNCTION      0.00   540.76     0  10:48           0        84.9       0.237
  68                   JUNCTION     10.12    10.14     0  12:00        1.19        1.43       0.797
  69                   JUNCTION      7.67     7.67     0  12:01        0.91       0.911       0.020
  70                   JUNCTION      3.47     8.52     0  06:26       0.424       0.747       0.027
  71                   JUNCTION      5.79     5.81     0  12:01       0.692       0.825       0.046
  72                   JUNCTION     13.50    13.50     0  12:00         1.6         1.6      -0.005
  73                   JUNCTION      4.33     4.33     0  12:00       0.527       0.527      -0.013
  74                   JUNCTION     13.50    13.58     0  12:00         1.6        2.21       0.001
  75                   JUNCTION      0.00    13.25     0  06:29           0        2.12       0.057
  76                   JUNCTION     10.12    10.12     0  12:01        1.19        1.19       0.044
  77                   JUNCTION      0.00    12.17     0  06:33           0       0.839       0.265
  78                   JUNCTION      7.72     7.72     0  12:00       0.928       0.928       0.043
  79                   JUNCTION      0.00     6.82     0  06:33           0       0.335       0.541
  80                   JUNCTION      7.72     7.72     0  12:00       0.928       0.928       0.041
  81                   JUNCTION      4.33     4.33     0  12:00       0.527       0.527       0.075
  82                   JUNCTION      0.00    21.95     0  06:33           0         1.6       0.132
  84                   JUNCTION      0.00     3.15     0  06:33           0       0.158       1.117
  85                   JUNCTION      0.00    10.42     0  06:33           0       0.781       0.238
  86                   JUNCTION      0.00     4.12     0  06:31           0       0.184       0.965
  87                   JUNCTION      7.72     7.72     0  12:00       0.928       0.928       0.043
  88                   JUNCTION      0.00     2.04     0  06:23           0       0.157       0.711
  89                   JUNCTION      4.33     4.33     0  12:00       0.527       0.527       0.074
  90                   JUNCTION      0.00    21.64     0  06:33           0        2.25       0.214
  91                   JUNCTION     10.23    16.94     0  06:19        1.22        2.77       0.986
  92                   JUNCTION      4.33    25.64     0  06:18       0.527        6.74       0.553
  93                   JUNCTION     13.50    13.50     0  12:00         1.6        2.61       0.678
  94                   JUNCTION      4.33    18.07     0  12:34       0.527        5.25       0.545
  95                   JUNCTION      1.74     1.74     0  12:00       0.215        0.22       2.152
  96                   JUNCTION      1.74     1.85     0  06:19       0.215       0.279       6.099
  97                   JUNCTION      4.33     4.33     0  12:00       0.527       0.531       0.881
  98                   JUNCTION      4.33     4.37     0  12:00       0.527       0.651       2.486
  99                   JUNCTION      3.47     3.47     0  12:00       0.424       0.429       1.094
  100                  JUNCTION      3.47     3.49     0  12:00       0.424       0.459       2.032
  101                  JUNCTION      1.74     2.30     0  06:15       0.215       0.279       6.045
  102                  JUNCTION      1.74     1.89     0  06:15       0.215       0.278       6.128
  103                  JUNCTION      3.47     3.47     0  12:00       0.424       0.429       1.095
  104                  JUNCTION      1.74     1.74     0  12:00       0.215        0.22       2.147
  105                  JUNCTION      1.74     2.62     0  06:19       0.215       0.321       0.000
  106                  JUNCTION      3.47     7.18     0  06:19       0.424       0.694       2.653
  107                  JUNCTION      4.33     8.18     0  06:19       0.527       0.817       1.127
  108                  JUNCTION      4.33     9.29     0  06:19       0.527       0.874       2.171
  109                  JUNCTION     10.23    10.25     0  12:00        1.22        1.42       0.979
  110                  JUNCTION     14.33    14.33     0  12:00        6.45        6.45       0.091
  111                  JUNCTION      4.33    13.08     0  06:15       0.527        4.92       0.209
  112                  JUNCTION      4.33    12.16     0  06:15       0.527        4.87       0.210
  113                  JUNCTION      4.33     4.33     0  12:00       0.527       0.538       2.020
  114                  JUNCTION      4.33    14.87     0  06:15       0.527        5.09       0.377
  115                  JUNCTION      4.33    16.58     0  06:15       0.527        5.46       0.264
  116                  JUNCTION      4.33     4.33     0  12:00       0.527       0.532       0.951
  117                  JUNCTION      4.33    28.25     0  12:00       0.527         7.6       0.471
  118                  JUNCTION      0.00    53.20     0  06:16           0        7.68       0.137
  119                  JUNCTION      4.33    58.52     0  06:17       0.527        8.58       0.122
  120                  JUNCTION      0.00    68.89     0  11:10           0        9.49       0.077
  121                  JUNCTION      0.00    74.12     0  11:10           0        14.3       0.078
  122                  JUNCTION      0.00    95.73     0  11:10           0        15.4       0.108
  123                  JUNCTION      0.00    99.22     0  11:05           0        18.9       0.169
  124                  JUNCTION      0.00   126.65     0  11:05           0        22.3       0.103
  125                  JUNCTION      0.00   139.37     0  11:17           0        23.9       0.139
  126                  JUNCTION      0.00    21.46     0  06:34           0        3.15       0.037
  127                  JUNCTION      0.00    23.48     0  10:55           0        4.34      -0.033
  128                  JUNCTION     10.12    10.12     0  12:01        1.19        1.19      -0.008
  129                  JUNCTION      4.33     4.33     0  12:00       0.527       0.527       0.030
  130                  JUNCTION      4.33     4.33     0  12:00       0.527       0.527       0.030
  131                  JUNCTION      4.33     4.33     0  12:00       0.527       0.527       0.019
  132                  JUNCTION      4.33     4.33     0  12:00       0.527       0.527       0.053
  133                  JUNCTION      0.00     7.59     0  09:42           0       0.991       0.095
  134                  JUNCTION      4.33     9.69     0  06:32       0.527       0.887       0.239
  135                  JUNCTION      0.00     4.87     0  06:32           0       0.331       0.402
  136                  JUNCTION      6.88     8.66     0  06:32       0.829         1.1       0.132
  137                  JUNCTION     20.38    20.40     0  12:00        2.43        2.71       0.063
  138                  JUNCTION     10.23    19.22     0  06:35        1.22        3.23       0.112
  139                  JUNCTION      4.33    19.78     0  06:35       0.527        3.32       0.031
  140                  JUNCTION      4.33    22.67     0  11:39       0.527        4.37       0.050
  141                  JUNCTION      0.00   203.67     0  10:47           0        34.2       0.043
  142                  JUNCTION      0.00   168.36     0  10:46           0        28.2       0.041
  143                  JUNCTION      0.00   156.76     0  11:07           0        26.6       0.063
  144                  JUNCTION      4.33     4.33     0  12:00       0.527       0.527      -0.038
  145                  JUNCTION     13.50    13.50     0  12:00         1.6         1.6       0.034
  146                  JUNCTION     13.50    13.50     0  12:00         1.6         1.6       0.013
  147                  JUNCTION      4.33     4.33     0  12:00       0.527       0.527       0.000
  148                  JUNCTION     10.23    10.23     0  12:00        1.22        1.22      -0.011
  149                  JUNCTION      0.00    14.57     0  11:54           0        1.75       0.033
  150                  JUNCTION      4.33    29.15     0  11:54       0.527        3.49       0.009
  151                  JUNCTION     10.23    10.23     0  12:00        1.22        1.22      -0.006
  152                  JUNCTION      4.33     4.54     0  06:33       0.527       0.528       0.012
  153                  JUNCTION     10.23    10.23     0  12:00        1.22        1.22       0.028
  154                  JUNCTION      4.33     4.33     0  12:00       0.527       0.527       0.037
  155                  JUNCTION      4.33     4.33     0  12:00       0.527       0.528       0.322
  156                  JUNCTION      4.33     9.20     0  06:14       0.527       0.532       0.260
  157                  JUNCTION      4.33    11.97     0  06:16       0.527        0.53       0.141
  158                  JUNCTION      4.33     5.58     0  06:15       0.527       0.529       0.172
  159                  JUNCTION     13.50    13.50     0  12:00         1.6        1.61       0.129
  160                  JUNCTION      4.33    11.97     0  06:16       0.527        0.53       0.141
  161                  JUNCTION      3.24    20.98     0  06:16       0.393       0.401       0.449
  162                  JUNCTION      3.24    12.97     0  06:15       0.393       0.401       0.466
  163                  JUNCTION      4.33     4.33     0  12:00       0.527       0.532       0.696
  164                  JUNCTION     59.14    59.14     0  12:00        12.1        12.1      -0.138
  165                  JUNCTION      0.00   251.96     0  11:53           0        12.6      -0.665
  166                  JUNCTION      0.00   654.64     0  11:32           0        16.4      -1.540
  167                  JUNCTION      0.00   654.69     0  07:49           0        16.4      -0.239
  168                  JUNCTION      0.00   451.02     0  11:18           0        16.2      -0.415
  169                  JUNCTION      0.00  1108.87     0  07:27           0        16.7       0.262
  170                  JUNCTION      0.00   923.46     0  07:27           0        15.6       2.148
  171                  JUNCTION      0.00   345.23     0  11:26           0          14       1.311
  172                  JUNCTION      0.00   195.87     0  11:12           0        13.6      -1.616
  173                  JUNCTION      0.00   270.06     0  11:50           0        13.6       0.701
  174                  JUNCTION      0.00   262.04     0  10:59           0        15.3       0.213
  175                  JUNCTION      0.00   312.53     0  11:53           0        18.2      -0.309
  176                  JUNCTION      0.00   301.36     0  07:01           0        15.5       0.546
  177                  JUNCTION      0.00   813.18     0  10:47           0        15.1      -0.423
  178                  JUNCTION     13.50    54.99     0  11:05         1.6        13.7       0.273
  179                  JUNCTION      0.00    97.40     0  12:09           0        17.8       0.358
  180                  JUNCTION      4.33    19.47     0  10:59       0.527       0.625      -0.331
  181                  JUNCTION      4.33    24.78     0  07:30       0.527        0.66      -0.018
  182                  JUNCTION      4.33    19.18     0  11:40       0.527       0.623       0.081
  183                  JUNCTION      4.33    27.94     0  11:55       0.527       0.709      -0.996
  184                  JUNCTION      4.33    19.10     0  11:42       0.527       0.639      -0.335
  185                  JUNCTION      4.33    10.48     0  08:18       0.527       0.578       0.027
  186                  JUNCTION      4.33    22.77     0  11:50       0.527        1.16       0.548
  187                  JUNCTION      4.33    28.66     0  10:49       0.527       0.709      -2.817
  188                  JUNCTION      4.33    25.56     0  07:52       0.527       0.714      -4.669
  189                  JUNCTION      4.33    24.97     0  10:56       0.527       0.708      -2.811
  190                  JUNCTION      4.33     8.12     0  11:49       0.527       0.537      -0.005
  191                  JUNCTION      4.33    13.49     0  11:26       0.527        1.07       0.389
  192                  JUNCTION      0.00    31.38     0  11:41           0        1.63       0.282
  193                  JUNCTION      4.33     8.83     0  11:25       0.527       0.543       0.610
  194                  JUNCTION      0.00    21.14     0  10:59           0        0.18       1.029
  195                  JUNCTION      4.33    24.49     0  10:56       0.527       0.571       0.648
  196                  JUNCTION     13.50    20.81     0  11:13         1.6         1.6       0.372
  197                  JUNCTION     13.50    22.47     0  11:53         1.6        1.61       0.307
  198                  JUNCTION     13.50    13.50     0  12:00         1.6         1.6       0.118
  199                  JUNCTION      4.33    22.34     0  12:02       0.527       0.572       0.877
  200                  JUNCTION      4.33     5.53     0  12:07       0.527       0.528      -0.087
  201                  JUNCTION      0.00    25.36     0  11:15           0        3.52      -0.013
  202                  JUNCTION     19.75    39.40     0  11:59        2.33        5.01       0.007
  203                  JUNCTION      6.88    19.65     0  11:04       0.829        2.69      -0.155
  204                  JUNCTION      0.00   381.98     0  10:58           0        18.8       3.089
  205                  JUNCTION      0.00     5.98     0  11:20           0      0.0335       1.173
  206                  JUNCTION      0.00    14.02     0  11:18           0       0.207      -0.455
  207                  JUNCTION      0.00     3.54     0  11:10           0      0.0399       3.675
  208                  JUNCTION      0.00    20.91     0  11:23           0       0.324      -0.164
  209                  JUNCTION      0.00    22.20     0  12:12           0       0.744      -0.232
  210                  JUNCTION      0.00    33.64     0  12:08           0        1.63      -0.279
  211                  JUNCTION      4.33     4.33     0  12:00       0.527       0.527       0.006
  212                  JUNCTION      4.33     4.33     0  12:00       0.527       0.527      -0.117
  213                  JUNCTION      0.00    36.89     0  12:07           0        2.13      -0.007
  214                  JUNCTION      0.00    37.60     0  12:07           0        2.66       0.191
  215                  JUNCTION      0.00    75.16     0  12:00           0        9.57       0.193
  216                  JUNCTION      0.00    58.81     0  11:59           0        6.74       0.009
  217                  JUNCTION      0.00    36.05     0  12:00           0        4.33      -0.000
  218                  JUNCTION      0.00    30.87     0  12:00           0        3.71       0.016
  219                  JUNCTION     10.23    17.11     0  11:59        1.22        2.05       0.000
  220                  JUNCTION      6.88     6.88     0  12:00       0.829       0.829       0.002
[...]
  139                         5.25      5.81      6.47      0.66         2.14
  140                         5.46      6.47      6.00     20.17         3.92
  141                         5.44      5.98      6.32     19.90         4.32
  142                         6.05      6.32      6.66     20.70         4.34
  143                         6.58      6.66      7.37      0.15         1.66
  144                         6.81      6.88      7.35      0.06         1.41
  145                         7.27      7.35      7.84      0.11         1.32
  146                         7.74      7.84      7.81     20.83         5.93
  148                         8.65     16.86      8.71     20.62        12.18
  149                         2.58      2.58      3.04      0.01         0.03
  150                         6.70      6.70     15.74      0.21         1.12
  151                         9.30      9.52      9.30      6.11         4.18
  152                         7.70      8.29      7.70      6.02         3.83
  153                         6.95      7.49      6.96      6.24         3.99
  154                         7.50      7.51      7.51      6.44         4.15
  155                         7.03      7.51     15.51      1.19         2.26
  156                         6.87      7.34     15.51      0.75         2.09
  157                         6.91      7.45      6.96      5.83         3.94
  158                         6.52      7.22     10.59      0.88         2.04
  159                         7.63      7.93      9.65      1.66         2.65
  160                         7.60      7.61      7.60      6.57         4.24
  161                         7.54      7.60      7.88      4.02         3.78
  162                         7.61      7.61      7.61      6.65         4.42
  163                         7.60      7.61      7.60      7.32         5.06
  164                         7.40      7.43      9.80      0.34         0.69
  165                         7.90      7.94      9.80      0.11         0.82
  166                         7.38      7.41      8.73      0.10         0.84
  167                         9.30     13.06      9.30     21.81         9.75
  168                         8.55      8.57     10.66      3.67         3.32
  169                         7.88      7.91     10.98      0.04         0.55
  170                         9.67      9.69     10.66      2.83         2.34
  171                         6.65      6.66      6.65      6.68         4.87
  172                         6.65      6.65      7.84      4.51         4.41
  173                         6.65      6.65      7.37      9.26         0.29
  174                         7.30      7.37     11.57      0.62         0.44
  175                         7.64      7.81      8.35      0.73         1.40
  176                         7.36      7.58      8.26      0.08         1.37
  177                         2.64      7.37      2.64      9.26         6.61
  178                         2.64      2.64      6.96      0.01         0.01
  179                         0.01      0.01      0.01      4.19         0.01
  184                         0.01      0.01      0.47      0.01         0.01
  185                         0.47      0.47      2.40      0.01         0.01
  186                         2.40      2.40      3.05      0.01         0.01
  187                         3.05      3.05      3.78      0.01         0.01
  188                         3.82      3.82      4.81      0.01         0.01
  189                         0.01      0.01      3.03      0.01         0.01
  190                         5.51      5.56      5.51      7.09         5.54
  191                         5.23      5.51      5.23      7.74         5.38
  192                         0.01      5.23      0.01      7.97         4.43
  194                         0.01      0.01      3.65      0.01         0.01
  195                         3.65      3.65      3.98      0.01         0.01
  196                         3.02      3.04      3.08      0.39         0.49
  197                         6.48      6.48      7.42      0.01         0.01
  198                         0.01      0.01      3.75      0.01         0.01
  199                         5.23      5.27      5.23      7.10         5.25
  200                         5.23      5.27      5.23      7.10         5.25
  201                         0.01      1.18      0.01      6.78         0.82
  202                         7.72      7.72     10.27      0.01         0.01
  203                         7.72      7.72     10.26      0.01         0.01
  204                         7.52      7.55      7.53      0.21         1.62
  205                         7.53      7.53      7.72      3.89         2.67
  206                         7.51      7.51      7.53      1.05         2.22
  207                         7.51      7.51     10.06      0.01         0.01
  208                         7.51      7.52      7.51      0.22         1.39
  209                         5.57      5.57      5.58      5.22         3.50
  210                         7.71      8.24      7.71     11.03         8.05
  211                         5.51      5.58      5.51      9.80         5.20
  212                         5.40      5.51      5.40      9.46         5.11
  213                         7.64      7.65      7.64      6.55         5.41
  214                         7.71      7.71     10.30      0.01         0.01
  215                         5.09      5.40      5.09      9.92         5.01
  216                         4.33      5.09      4.33     10.42         4.75
  217                         0.01      4.33      0.01     10.01         1.23
  218                         7.00      7.00      7.00      7.02         6.33
  219                         6.98      7.00      6.98      7.75         6.95
  220                         6.98      7.00      6.98      8.06         6.99
  221                         7.58      7.58     10.17      1.45         0.19
  222                         5.40      5.45      5.40      7.07         4.97
  223                        10.20     10.20     10.20      8.00         7.49
  224                         7.58      7.58     10.20      0.50         0.20
  225                         5.66      5.66      7.23      0.01         0.01
  226                         5.29      5.66      5.29      8.26         5.50
  227                         5.29      5.29      6.35      3.60         3.52
  228                         4.52      6.35      4.52      8.58         5.68
  229                         2.62      4.52      2.62      8.35         3.19
  230                         2.45      2.45      2.59      6.93         0.01
  231                         2.59      2.59      2.62      3.15         0.05
  232                         2.62      2.62      2.62      6.22         2.47
  233                         2.62      2.62      7.42      0.01         0.01
  234                         0.01      4.52      0.01      8.29         2.84
  235                         6.43      6.43      6.43      6.52         6.03
  236                         6.35      6.43      6.35      8.16         6.40
  237                         2.62      2.66      2.62      6.60         2.64
  238                         2.59      2.62      2.59      6.60         2.61
  239                         2.45      5.49      2.45      9.11         3.69
  240                         2.45      2.45      8.85      0.01         0.01
  243                         0.01      0.01      0.01      3.02         0.01
  244                         0.01      0.01      0.01      3.12         0.01
  246                         6.68      6.68      6.68      7.61         6.67
  247                         0.11      0.11      6.59      0.01         0.01
  248                         6.68      6.69      6.68      7.54         6.67
  249                         6.56      6.68      6.56      8.47         6.63
  250                         2.10      6.56      2.10      8.70         5.07
  251                         2.30      3.08      2.30      4.99         2.74
  252                         2.22      2.30      2.22      3.11         2.27
  253                         2.10      2.10      7.53      0.01         0.01
  254                         1.58      2.22      1.58      4.04         2.07
  255                         1.58      1.58      2.60      0.01         0.01
  257                         5.50      5.50      6.35      0.01         0.01
  258                         6.35      6.35      7.31      3.56         3.49
  259                         0.01      0.01      7.53      0.01         0.01
  260                         0.01      0.01      8.85      0.01         0.01
  261                         0.01      0.01      8.75      0.01         0.01
  262                         1.21      1.21      8.85      0.01         0.01
  263                         5.92      5.92      6.65      4.11         4.07
  264                         4.99      4.99      5.92      0.01         0.01
  265                         4.23      4.23      5.00      0.01         0.01
  266                         5.00      5.00      5.92      0.01         0.01
  267                         5.94      5.94      6.65      2.90         2.81
  268                         6.52      6.52      7.13      2.85         2.54
  269                         7.13      7.13      7.78      6.45         6.35
  272                         6.22      6.57      6.68      6.38         5.93
  273                         5.86      5.86      6.57      3.91         3.77
  274                         5.80      5.80      6.57      0.01         0.01
  275                         6.50      6.50      6.83      3.99         3.73
  276                         6.40      6.40      6.83      0.01         0.01
  277                         6.83      6.83      7.13      6.27         6.25
  278                         6.98      6.98      7.71      5.82         0.04
  279                         7.66      7.71      7.66      6.31         3.95
  284                         2.17      2.17      8.75      0.01         0.01
  
  
  ***************************
  Link Pollutant Load Summary
  ***************************
  
  ----------------------------------
                                 TSS
  Link                           lbs
  ----------------------------------
  37                          98.506
  38                         165.180
  39                         205.836
  40                         317.940
  41                          67.066
  42                         510.895
  45                         221.625
  46                          63.048
  47                          99.898
  48                         111.013
  49                         228.994
  50                         314.221
  51                         515.775
  52                         802.504
  53                         285.119
  54                          66.790
  55                         100.596
  56                         100.593
  57                         100.593
  58                         172.914
  59                         136.899
  60                           9.254
  61                          30.418
  62                          33.852
  63                          23.155
  64                          17.811
  65                          65.775
  66                          26.559
  67                           9.319
  68                          14.111
  69                          20.861
  70                          40.321
  71                          24.483
  72                         121.203
  73                         155.209
  74                          85.959
  75                         200.566
  76                         190.568
  77                         106.376
  78                         190.658
  79                          34.372
  80                          82.337
  81                         130.576
  82                          50.535
  83                          46.950
  84                         227.858
  85                         321.434
  86                         350.191
  87                         322.843
  88                         151.454
  89                         595.845
  90                         841.328
  91                         885.789
  92                         997.677
  93                        1083.409
  94                        2328.450
  95                        2525.563
  96                        2906.166
  97                        3161.880
  98                        1031.078
  99                        1105.195
  100                       1190.370
  101                         60.044
  102                         57.251
  103                         70.575
  104                        163.046
  105                         70.575
  106                        103.675
  107                        348.445
  108                        171.421
  109                        129.728
  110                        190.362
  111                        380.100
  112                        670.312
  113                        710.901
  114                        838.908
  115                         63.516
  116                          0.000
  117                          0.000
  118                        135.922
  119                         64.829
  120                        175.529
  121                        129.827
  122                        301.250
  123                         66.299
  124                        127.421
  125                        106.406
  126                         48.980
  127                         51.745
  128                        153.628
  129                          6.535
  130                         56.455
  131                         63.440
  132                         59.381
  133                         49.393
  134                         59.574
  135                        755.865
  136                        781.670
  137                       1326.590
  138                       1189.152
  139                       1135.915
  140                       1203.443
  141                       1123.102
  142                       1112.768
  143                       1257.533
  144                       1258.384
  145                       1456.572
  146                       1466.910
  148                       1160.525
  149                       1435.585
  150                         52.325
  151                         63.346
  152                         51.189
  153                         55.790
  154                         63.433
  155                         97.018
  156                         61.597
  157                         64.951
  158                         50.923
  159                         58.364
  160                         64.172
  161                        159.729
  162                         63.563
  163                        113.384
  164                        172.644
  165                         63.115
  166                         26.489
  167                        524.220
  168                        193.261
  169                         56.374
  170                        171.542
  171                         59.229
  172                        364.311
  173                        319.493
  174                        548.697
  175                       1774.654
  176                       1299.204
  177                        320.796
  178                        306.332
  179                       3194.251
  180                          0.000
  181                          0.000
  182                          0.000
  183                          0.000
  184                         55.037
  185                        210.484
  186                        268.315
  187                         91.584
  188                         60.850
  189                         53.350
  190                        103.655
  191                        224.203
  192                        369.360
  193                        426.653
  194                        534.043
  195                       1046.142
  196                       1445.712
  197                        203.612
  198                        158.229
  199                        102.891
  200                         97.174
  201                         69.610
  202                         87.052
  203                         41.447
  204                         50.383
  205                        425.785
  206                        267.342
  207                         52.755
  208                         68.843
  209                        589.214
  210                        539.470
  211                        878.541
  212                       1013.354
  213                         75.553
  214                         93.679
  215                       1376.990
  216                       1601.217
  217                       1880.331
  218                         94.592
  219                        214.545
  220                        175.434
  221                        179.831
  222                        414.687
  223                        173.986
  224                        193.777
  225                        144.732
  226                        300.104
  227                        299.112
  228                        505.707
  229                        284.702
  230                         50.249
  231                         18.795
  232                         59.153
  233                        348.024
  234                        224.411
  235                         67.976
  236                        229.026
  237                         57.083
  238                         57.078
  239                        187.045
  240                        198.834
  241                       3447.592
  242                       3443.573
  243                       4273.698
  244                       4278.695
  245                       4510.177
  246                        138.674
  247                        190.415
  248                        135.027
  249                        439.119
  250                        504.751
  251                       2635.214
  252                       2771.690
  253                        504.258
  254                       3273.682
  255                       3469.248
  256                       7884.393
  257                          0.000
  258                          0.000
  259                          0.000
  260                          0.000
  261                          0.000
  262                          0.000
  263                        119.571
  264                         68.638
  265                         55.620
  266                         56.769
  267                          0.000
  268                          0.000
  269                        513.814
  270                       8908.029
  271                       9774.475
  272                        493.814
  273                        275.378
  274                        145.322
  275                        309.505
  276                         81.306
  277                        540.298
  278                        283.398
  279                        270.345
  280                       2533.730
  281                      1.401e+04
  282                      1.615e+04
  283                      1.138e+04
  284                          0.000
  

  Analysis begun on:  Thu Apr 15 01:36:28 2021
  Analysis ended on:  Thu Apr 15 01:36:31 2021
  Total elapsed time: 00:00:03