  Page 1                                           12/29/2023 2:01:58 PM
  **********************************************************************
  *                             E P A N E T                            *
  *                     Hydraulic and Water Quality                    *
  *                     Analysis for Pipe Networks                     *
  *                           Version 2.2                              *
  **********************************************************************
  
  Input File: pecos-pipeline-layout-004.net
  
  
  
  Link - Node Table:
  ----------------------------------------------------------------------
  Link           Start          End                Length  Diameter
  ID             Node           Node                   ft        in
  ----------------------------------------------------------------------
  1              25W3FCV        J1                   1916         6
  2              25W5           J1                   1290         6
  3              25W4FCV        J2                   1101         6
  4              J1             J2                    601         6
  5              J2             J3                   1593         6
  6              25W2           J3                   1099         6
  J3-J4          J3             J4                    356         8
  30W6-30W5      30W6FCV        30W5                 2072         6
  30W5-J6        30W5           J6                    947         6
  30W3-J6        J6             30W3                  774         6
  30W3-J5        30W3           J5                   1349         8
  12             J5             30W1                  701         8
  25W1-30W1      30W1           25W1                 2965         8
  25W1-J4        25W1           J4                    705        10
  30W2-J5        30W2           J5                   2081         6
  30W4-J6        30W4           J6                   2260         6
  J4-J7          J4             J7                   2144        12
  J7-J8          J7             J8                   1230        12
  24W2-J8        24W2FCV        J8                   1375         6
  J8-J9          J8             J9                    635        12
  24W3-J9        24W3FCV        J9                    831         6
  J9-TERMINAL    J9             TERMINAL             2006        14
  24W1-J7        24W1FCV        J7                     82         6
  P020           18             19                    709     17.43
  P019           19             16                   3792     17.43
  P018           16             13                   8440     17.43
  P017           13             20                    654     17.43
  P016           20             12                   1358     17.43
  P015           12             14                  12960     17.43
  P014           14             17                   5554     17.43
  P013           17             11                   5231     17.43
  P012           11             10                   4011     17.43
  P011           10             8                    3863     17.43
  P010           8              7                   19458     17.43
  P009           7              21                   1871     17.43
  P008           21             6                   12851     17.43
  P007           6              5                   14340     17.43


  Page 2                                                                
  Link - Node Table: (continued)
  ----------------------------------------------------------------------
  Link           Start          End                Length  Diameter
  ID             Node           Node                   ft        in
  ----------------------------------------------------------------------
  P006           5              22                   1681     17.43
  P005           22             23                   2639     17.43
  P004           23             4                    2587     17.43
  P003           4              3                     895     17.43
  P002           3              2                    4436     17.43
  P001           2              TSR_MANIFOLD         2859     17.43
  15             TERMINAL       SMALL_ISR             100        14
  16             SMALL_ISR      18                   1000     17.43
  8              BIG_ISR        SMALL_ISR            1000        12
  17             TSR_MANIFOLD   TSR_TWO               100     17.43
  18             BOOST_MANIFOLD BOOST_IN             1000     17.43
  7              TSR_MANIFOLD   TSR_ONE              1000        12
  14             TSR_TWO        BOOST_MANIFOLD       1000        12
  19             TSR_ONE        BOOST_MANIFOLD       1000        12
  20             WDSFCV         WDS                  1000     17.43
  P24W1          35             24W1                 #N/A      #N/A Pump
  P24W3          37             24W3                 #N/A      #N/A Pump
  P24W2          36             24W2                 #N/A      #N/A Pump
  P25W2          28             25W2FCV              #N/A      #N/A Pump
  P30W5          31             30W5FCV              #N/A      #N/A Pump
  P30W4          30             30W4FCV              #N/A      #N/A Pump
  P30W1          33             30W1FCV              #N/A      #N/A Pump
  P25W1          34             25W1FCV              #N/A      #N/A Pump
  P25W4          15             25W4                 #N/A      #N/A Pump
  P25W3          9              25W3                 #N/A      #N/A Pump
  P25W5          27             25W5FCV              #N/A      #N/A Pump
  P30W2          29             30W2FCV              #N/A      #N/A Pump
  P30W6          32             30W6                 #N/A      #N/A Pump
  P30W3          38             30W3FCV              #N/A      #N/A Pump
  BOOST_1        BOOST_IN       WDSFCV               #N/A      #N/A Pump
  FCV25W4        25W4           25W4FCV              #N/A         6 Valve
  FCV25W3        25W3           25W3FCV              #N/A         6 Valve
  FVC30W1        30W1FCV        30W1                 #N/A         6 Valve
  FCV25W1        25W1FCV        25W1                 #N/A         6 Valve
  FCV25W5        25W5FCV        25W5                 #N/A         6 Valve
  FCV24W1        24W1           24W1FCV              #N/A         6 Valve
  FCV24W2        24W2           24W2FCV              #N/A         6 Valve
  FCV24W3        24W3           24W3FCV              #N/A         6 Valve
  FCV30W6        30W6           30W6FCV              #N/A         6 Valve
  FCV30W5        30W5FCV        30W5                 #N/A         6 Valve
  FCV30W4        30W4FCV        30W4                 #N/A         6 Valve
  FCV30W3        30W3FCV        30W3                 #N/A         6 Valve
  FCV25W2        25W2FCV        25W2                 #N/A         6 Valve
  FCV30W2        30W2FCV        30W2                 #N/A         6 Valve
  


  Page 3                                                                
  Energy Usage:
  ----------------------------------------------------------------------
                    Usage   Avg.     Kw-hr      Avg.      Peak      Cost
  Pump             Factor Effic.     /Mgal        Kw        Kw      /day
  ----------------------------------------------------------------------
  P24W1              8.50  75.00   2333.19     21.00     21.00      0.00
  P24W3              8.50  75.00   2333.19     21.00     21.00      0.00
  P24W2              8.50  75.00   2333.19     21.00     21.00      0.00
  P25W2              8.50  75.00   2333.19     21.00     21.00      0.00
  P30W5              8.50  75.00   2333.18     21.00     21.00      0.00
  P30W4              8.50  75.00   2333.18     21.00     21.00      0.00
  P30W1              8.50  75.00   2333.18     21.00     21.00      0.00
  P25W1              8.50  75.00   2333.18     21.00     21.00      0.00
  P25W4              8.50  75.00   2333.18     21.00     21.00      0.00
  P25W3              8.50  75.00   2333.18     21.00     21.00      0.00
  P25W5              8.50  75.00   2333.18     21.00     21.00      0.00
  P30W2              8.50  75.00   2333.18     21.00     21.00      0.00
  P30W6              8.50  75.00   2333.18     21.00     21.00      0.00
  P30W3              8.50  75.00   2333.18     21.00     21.00      0.00
  BOOST_1          100.00  75.00    101.17      1.82      1.82      0.00
  ----------------------------------------------------------------------
                                                Demand Charge:      0.00
                                                Total Cost:         0.00
  
  Node Results at 0:00 Hrs:
  ----------------------------------------------------------------------
  Node                Demand      Head  Pressure   Quality
  ID                     GPM        ft       psi          
  ----------------------------------------------------------------------
  J8                    0.00   2818.89     11.19      0.00
  J9                    0.00   2814.64     10.68      0.00
  J7                    0.00   2825.99     16.90      0.00
  TERMINAL              0.00   2807.36      6.98      0.00
  J4                    0.00   2836.53     19.64      0.00
  J3                    0.00   2838.47     19.97      0.00
  J2                    0.00   2859.13     25.92      0.00
  J1                    0.00   2862.81     26.38      0.00
  25W3                  0.00   3257.00    196.22      0.00
  25W4                  0.00   3207.00    173.75      0.00
  25W5                  0.00   2864.99     25.90      0.00
  25W1                  0.00   2840.18     17.89      0.00
  25W2                  0.00   2840.33     19.18      0.00
  30W1                  0.00   2874.37     30.41      0.00
  30W3                  0.00   2887.47     34.89      0.00
  30W5                  0.00   2903.31     38.93      0.00
  30W4                  0.00   2901.34     42.79      0.00
  30W6                  0.00   3217.00    171.90      0.00
  J6                    0.00   2897.51     36.96      0.00
  J5                    0.00   2880.13    898.63      0.00
  24W2                  0.00   3006.00     97.26      0.00
  24W3                  0.00   2992.00     86.50      0.00
  30W2                  0.00   2883.66     31.76      0.00


  Page 4                                                                
  Node Results at 0:00 Hrs: (continued)
  ----------------------------------------------------------------------
  Node                Demand      Head  Pressure   Quality
  ID                     GPM        ft       psi          
  ----------------------------------------------------------------------
  24W1                  0.00   3017.00     99.45      0.00
  2                     0.00   2630.79     13.77      0.00
  3                     0.00   2638.00     20.80      0.00
  4                     0.00   2639.46     21.43      0.00
  5                     0.00   2650.69     34.10      0.00
  6                     0.00   2674.02     46.37      0.00
  7                     0.00   2697.97     54.58      0.00
  8                     0.00   2729.62     44.03      0.00
  10                    0.00   2735.90     44.15      0.00
  11                    0.00   2742.43     36.58      0.00
  12                    0.00   2781.05      4.79      0.00
  13                    0.00   2784.32      6.21      0.00
  14                    0.00   2759.97     10.82      0.00
  16                    0.00   2798.05      7.82      0.00
  17                    0.00   2750.93     30.74      0.00
  18                    0.00   2805.37      5.36      0.00
  19                    0.00   2804.22      4.43      0.00
  20                    0.00   2783.26      5.31      0.00
  21                    0.00   2694.92     56.30      0.00
  22                    0.00   2647.96     33.35      0.00
  23                    0.00   2643.66     27.15      0.00
  25W4FCV               0.00   2861.00     23.83      0.00
  25W3FCV               0.00   2866.06     26.83      0.00
  30W1FCV               0.00   3207.00    174.54      0.00
  25W1FCV               0.00   3157.00    155.17      0.00
  25W5FCV               0.00   3257.00    195.76      0.00
  24W1FCV               0.00   2826.13     16.74      0.00
  24W2FCV               0.00   2821.22     17.20      0.00
  24W3FCV               0.00   2816.05     10.26      0.00
  30W6FCV               0.00   2906.82     37.50      0.00
  30W5FCV               0.00   3215.00    173.99      0.00
  30W4FCV               0.00   3200.00    172.20      0.00
  30W3FCV               0.00   3158.00    152.11      0.00
  25W2FCV               0.00   3052.00    110.89      0.00
  30W2FCV               0.00   3140.00    142.83      0.00
  WDS                 300.00   2649.99     22.96      0.00
  BOOST_IN              0.00   2625.91     12.53      0.00
  WDSFCV                0.00   2650.06     22.99      0.00
  TSR_MANIFOLD          0.00   2626.13     12.62      0.00
  BOOST_MANIFOLD        0.00   2625.94     12.54      0.00
  9                  -150.00   2700.00      0.00      0.00 Reservoir
  15                 -150.00   2650.00      0.00      0.00 Reservoir
  27                 -150.00   2700.00      0.00      0.00 Reservoir
  28                 -150.00   2495.00      0.00      0.00 Reservoir
  29                 -150.00   2583.00      0.00      0.00 Reservoir
  30                 -150.00   2643.00      0.00      0.00 Reservoir
  31                 -150.00   2658.00      0.00      0.00 Reservoir


  Page 5                                                                
  Node Results at 0:00 Hrs: (continued)
  ----------------------------------------------------------------------
  Node                Demand      Head  Pressure   Quality
  ID                     GPM        ft       psi          
  ----------------------------------------------------------------------
  32                 -150.00   2660.00      0.00      0.00 Reservoir
  33                 -150.00   2650.00      0.00      0.00 Reservoir
  34                 -150.00   2600.00      0.00      0.00 Reservoir
  35                 -150.00   2460.00      0.00      0.00 Reservoir
  36                 -150.00   2449.00      0.00      0.00 Reservoir
  37                 -150.00   2435.00      0.00      0.00 Reservoir
  38                 -150.00   2601.00      0.00      0.00 Reservoir
  FGN                   0.00   2597.00      0.00      0.00 Reservoir
  TSR_ONE              86.39   2626.00     12.57      0.00 Tank
  BIG_ISR              -7.26   2807.00      6.50      0.00 Tank
  SMALL_ISR          -316.72   2807.00      6.50      0.00 Tank
  TSR_TWO            2037.61   2626.00     12.57      0.00 Tank
  
  Link Results at 0:00 Hrs:
  ----------------------------------------------------------------------
  Link                  Flow  VelocityUnit Headloss    Status
  ID                     GPM       fps    ft/Kft
  ----------------------------------------------------------------------
  1                   150.00      1.70      1.70      Open
  2                   150.00      1.70      1.70      Open
  3                   150.00      1.70      1.70      Open
  4                   300.00      3.40      6.12      Open
  5                   450.01      5.11     12.97      Open
  6                   150.00      1.70      1.70      Open
  J3-J4               600.01      3.83      5.44      Open
  30W6-30W5           150.00      1.70      1.70      Open
  30W5-J6             300.00      3.40      6.12      Open
  30W3-J6             450.00      5.11     12.97      Open
  30W3-J5             600.01      3.83      5.44      Open
  12                  750.01      4.79      8.23      Open
  25W1-30W1           900.01      5.74     11.53      Open
  25W1-J4            1050.01      4.29      5.17      Open
  30W2-J5             150.00      1.70      1.70      Open
  30W4-J6             150.00      1.70      1.70      Open
  J4-J7              1650.02      4.68      4.92      Open
  J7-J8              1800.02      5.11      5.78      Open
  24W2-J8             150.00      1.70      1.70      Open
  J8-J9              1950.02      5.53      6.70      Open
  24W3-J9             150.00      1.70      1.70      Open
  J9-TERMINAL        2100.02      4.38      3.63      Open
  24W1-J7             150.00      1.70      1.69      Open
  P020               2424.00      3.26      1.63      Open
  P019               2424.00      3.26      1.63      Open
  P018               2424.00      3.26      1.63      Open
  P017               2424.00      3.26      1.63      Open
  P016               2424.00      3.26      1.63      Open
  P015               2424.00      3.26      1.63      Open


  Page 6                                                                
  Link Results at 0:00 Hrs: (continued)
  ----------------------------------------------------------------------
  Link                  Flow  VelocityUnit Headloss    Status
  ID                     GPM       fps    ft/Kft
  ----------------------------------------------------------------------
  P014               2424.00      3.26      1.63      Open
  P013               2424.00      3.26      1.63      Open
  P012               2424.00      3.26      1.63      Open
  P011               2424.00      3.26      1.63      Open
  P010               2424.00      3.26      1.63      Open
  P009               2424.00      3.26      1.63      Open
  P008               2424.00      3.26      1.63      Open
  P007               2424.00      3.26      1.63      Open
  P006               2424.00      3.26      1.63      Open
  P005               2424.00      3.26      1.63      Open
  P004               2424.00      3.26      1.63      Open
  P003               2424.00      3.26      1.63      Open
  P002               2424.00      3.26      1.63      Open
  P001               2424.00      3.26      1.63      Open
  15                 2100.02      4.38      3.63      Open
  16                 2424.00      3.26      1.63      Open
  8                     7.26      0.02      0.00      Open
  17                 2187.61      2.94      1.35      Open
  18                  300.00      0.40      0.03      Open
  7                   236.39      0.67      0.13      Open
  14                  150.00      0.43      0.06      Open
  19                  150.00      0.43      0.06      Open
  20                  300.00      0.40      0.07      Open
  P24W1               150.00      0.00   -557.00      Open Pump
  P24W3               150.00      0.00   -557.00      Open Pump
  P24W2               150.00      0.00   -557.00      Open Pump
  P25W2               150.00      0.00   -557.00      Open Pump
  P30W5               150.00      0.00   -557.00      Open Pump
  P30W4               150.00      0.00   -557.00      Open Pump
  P30W1               150.00      0.00   -557.00      Open Pump
  P25W1               150.00      0.00   -557.00      Open Pump
  P25W4               150.00      0.00   -557.00      Open Pump
  P25W3               150.00      0.00   -557.00      Open Pump
  P25W5               150.00      0.00   -557.00      Open Pump
  P30W2               150.00      0.00   -557.00      Open Pump
  P30W6               150.00      0.00   -557.00      Open Pump
  P30W3               150.00      0.00   -557.00      Open Pump
  BOOST_1             300.00      0.00    -24.15      Open Pump
  FCV25W4             150.00      1.70    346.00    Active Valve
  FCV25W3             150.00      1.70    390.94    Active Valve
  FVC30W1             150.00      1.70    332.63    Active Valve
  FCV25W1             150.00      1.70    316.82    Active Valve
  FCV25W5             150.00      1.70    392.00    Active Valve
  FCV24W1             150.00      1.70    190.86    Active Valve
  FCV24W2             150.00      1.70    184.78    Active Valve
  FCV24W3             150.00      1.70    175.95    Active Valve
  FCV30W6             150.00      1.70    310.18    Active Valve


  Page 7                                                                
  Link Results at 0:00 Hrs: (continued)
  ----------------------------------------------------------------------
  Link                  Flow  VelocityUnit Headloss    Status
  ID                     GPM       fps    ft/Kft
  ----------------------------------------------------------------------
  FCV30W5             150.00      1.70    311.69    Active Valve
  FCV30W4             150.00      1.70    298.66    Active Valve
  FCV30W3             150.00      1.70    270.53    Active Valve
  FCV25W2             150.00      1.70    211.66    Active Valve
  FCV30W2             150.00      1.70    256.34    Active Valve
  
  Node Results at 1:00 Hrs:
  ----------------------------------------------------------------------
  Node                Demand      Head  Pressure   Quality
  ID                     GPM        ft       psi          
  ----------------------------------------------------------------------
  J8                    0.00   2823.17     13.05      0.00
  J9                    0.00   2818.92     12.53      0.00
  J7                    0.00   2830.28     18.75      0.00
  TERMINAL              0.00   2811.64      8.84      0.00
  J4                    0.00   2840.81     21.50      0.00
  J3                    0.00   2842.75     21.82      0.00
  J2                    0.00   2863.41     27.78      0.00
  J1                    0.00   2867.09     28.23      0.00
  25W3                  0.00   3257.00    196.22      0.00
  25W4                  0.00   3207.00    173.75      0.00
  25W5                  0.00   2869.28     27.76      0.00
  25W1                  0.00   2844.46     19.75      0.00
  25W2                  0.00   2844.62     21.03      0.00
  30W1                  0.00   2878.65     32.26      0.00
  30W3                  0.00   2891.75     36.75      0.00
  30W5                  0.00   2907.59     40.78      0.00
  30W4                  0.00   2905.62     44.64      0.00
  30W6                  0.00   3217.00    171.90      0.00
  J6                    0.00   2901.79     38.82      0.00
  J5                    0.00   2884.41    900.49      0.00
  24W2                  0.00   3006.00     97.26      0.00
  24W3                  0.00   2992.00     86.50      0.00
  30W2                  0.00   2887.94     33.61      0.00
  24W1                  0.00   3017.00     99.45      0.00
  2                     0.00   2631.75     14.19      0.00
  3                     0.00   2639.10     21.27      0.00
  4                     0.00   2640.58     21.92      0.00
  5                     0.00   2652.03     34.68      0.00
  6                     0.00   2675.79     47.14      0.00
  7                     0.00   2700.19     55.55      0.00
  8                     0.00   2732.44     45.25      0.00
  10                    0.00   2738.84     45.43      0.00
  11                    0.00   2745.49     37.91      0.00
  12                    0.00   2784.84      6.43      0.00
  13                    0.00   2788.18      7.88      0.00
  14                    0.00   2763.36     12.29      0.00


  Page 8                                                                
  Node Results at 1:00 Hrs: (continued)
  ----------------------------------------------------------------------
  Node                Demand      Head  Pressure   Quality
  ID                     GPM        ft       psi          
  ----------------------------------------------------------------------
  16                    0.00   2802.16      9.60      0.00
  17                    0.00   2754.16     32.13      0.00
  18                    0.00   2809.62      7.20      0.00
  19                    0.00   2808.45      6.26      0.00
  20                    0.00   2787.09      6.97      0.00
  21                    0.00   2697.09     57.24      0.00
  22                    0.00   2649.24     33.90      0.00
  23                    0.00   2644.87     27.67      0.00
  25W4FCV               0.00   2865.28     25.68      0.00
  25W3FCV               0.00   2870.34     28.68      0.00
  30W1FCV               0.00   3207.00    174.54      0.00
  25W1FCV               0.00   3157.00    155.17      0.00
  25W5FCV               0.00   3257.00    195.76      0.00
  24W1FCV               0.00   2830.41     18.60      0.00
  24W2FCV               0.00   2825.50     19.05      0.00
  24W3FCV               0.00   2820.33     12.11      0.00
  30W6FCV               0.00   2911.10     39.36      0.00
  30W5FCV               0.00   3215.00    173.99      0.00
  30W4FCV               0.00   3200.00    172.20      0.00
  30W3FCV               0.00   3158.00    152.11      0.00
  25W2FCV               0.00   3052.00    110.89      0.00
  30W2FCV               0.00   3140.00    142.83      0.00
  WDS                 300.00   2650.86     23.34      0.00
  BOOST_IN              0.00   2626.78     12.90      0.00
  WDSFCV                0.00   2650.93     23.37      0.00
  TSR_MANIFOLD          0.00   2627.01     13.00      0.00
  BOOST_MANIFOLD        0.00   2626.81     12.92      0.00
  9                  -150.00   2700.00      0.00      0.00 Reservoir
  15                 -150.00   2650.00      0.00      0.00 Reservoir
  27                 -150.00   2700.00      0.00      0.00 Reservoir
  28                 -150.00   2495.00      0.00      0.00 Reservoir
  29                 -150.00   2583.00      0.00      0.00 Reservoir
  30                 -150.00   2643.00      0.00      0.00 Reservoir
  31                 -150.00   2658.00      0.00      0.00 Reservoir
  32                 -150.00   2660.00      0.00      0.00 Reservoir
  33                 -150.00   2650.00      0.00      0.00 Reservoir
  34                 -150.00   2600.00      0.00      0.00 Reservoir
  35                 -150.00   2460.00      0.00      0.00 Reservoir
  36                 -150.00   2449.00      0.00      0.00 Reservoir
  37                 -150.00   2435.00      0.00      0.00 Reservoir
  38                 -150.00   2601.00      0.00      0.00 Reservoir
  FGN                   0.00   2597.00      0.00      0.00 Reservoir
  TSR_ONE              88.74   2626.87     12.94      0.00 Tank
  BIG_ISR            1578.80   2806.75      6.39      0.00 Tank
  SMALL_ISR         -1927.34   2811.28      8.35      0.00 Tank
  TSR_TWO            2059.82   2626.87     12.94      0.00 Tank
  


  Page 9                                                                
  Link Results at 1:00 Hrs:
  ----------------------------------------------------------------------
  Link                  Flow  VelocityUnit Headloss    Status
  ID                     GPM       fps    ft/Kft
  ----------------------------------------------------------------------
  1                   150.00      1.70      1.70      Open
  2                   150.00      1.70      1.70      Open
  3                   150.00      1.70      1.70      Open
  4                   300.00      3.40      6.12      Open
  5                   450.01      5.11     12.97      Open
  6                   150.00      1.70      1.70      Open
  J3-J4               600.01      3.83      5.44      Open
  30W6-30W5           150.00      1.70      1.70      Open
  30W5-J6             300.00      3.40      6.12      Open
  30W3-J6             450.00      5.11     12.97      Open
  30W3-J5             600.01      3.83      5.44      Open
  12                  750.01      4.79      8.23      Open
  25W1-30W1           900.01      5.74     11.53      Open
  25W1-J4            1050.01      4.29      5.17      Open
  30W2-J5             150.00      1.70      1.70      Open
  30W4-J6             150.00      1.70      1.70      Open
  J4-J7              1650.02      4.68      4.92      Open
  J7-J8              1800.02      5.11      5.78      Open
  24W2-J8             150.00      1.70      1.70      Open
  J8-J9              1950.02      5.53      6.70      Open
  24W3-J9             150.00      1.70      1.70      Open
  J9-TERMINAL        2100.02      4.38      3.63      Open
  24W1-J7             150.00      1.70      1.69      Open
  P020               2448.56      3.29      1.66      Open
  P019               2448.56      3.29      1.66      Open
  P018               2448.56      3.29      1.66      Open
  P017               2448.56      3.29      1.66      Open
  P016               2448.56      3.29      1.66      Open
  P015               2448.56      3.29      1.66      Open
  P014               2448.56      3.29      1.66      Open
  P013               2448.56      3.29      1.66      Open
  P012               2448.56      3.29      1.66      Open
  P011               2448.56      3.29      1.66      Open
  P010               2448.56      3.29      1.66      Open
  P009               2448.56      3.29      1.66      Open
  P008               2448.56      3.29      1.66      Open
  P007               2448.56      3.29      1.66      Open
  P006               2448.56      3.29      1.66      Open
  P005               2448.56      3.29      1.66      Open
  P004               2448.56      3.29      1.66      Open
  P003               2448.56      3.29      1.66      Open
  P002               2448.56      3.29      1.66      Open
  P001               2448.56      3.29      1.66      Open
  15                 2100.02      4.38      3.63      Open
  16                 2448.56      3.29      1.66      Open
  8                 -1578.80      4.48      4.53      Open
  17                 2209.80      2.97      1.37      Open


  Page 10                                                               
  Link Results at 1:00 Hrs: (continued)
  ----------------------------------------------------------------------
  Link                  Flow  VelocityUnit Headloss    Status
  ID                     GPM       fps    ft/Kft
  ----------------------------------------------------------------------
  18                  300.00      0.40      0.03      Open
  7                   238.76      0.68      0.14      Open
  14                  149.98      0.43      0.06      Open
  19                  150.02      0.43      0.06      Open
  20                  300.00      0.40      0.07      Open
  P24W1               150.00      0.00   -557.00      Open Pump
  P24W3               150.00      0.00   -557.00      Open Pump
  P24W2               150.00      0.00   -557.00      Open Pump
  P25W2               150.00      0.00   -557.00      Open Pump
  P30W5               150.00      0.00   -557.00      Open Pump
  P30W4               150.00      0.00   -557.00      Open Pump
  P30W1               150.00      0.00   -557.00      Open Pump
  P25W1               150.00      0.00   -557.00      Open Pump
  P25W4               150.00      0.00   -557.00      Open Pump
  P25W3               150.00      0.00   -557.00      Open Pump
  P25W5               150.00      0.00   -557.00      Open Pump
  P30W2               150.00      0.00   -557.00      Open Pump
  P30W6               150.00      0.00   -557.00      Open Pump
  P30W3               150.00      0.00   -557.00      Open Pump
  BOOST_1             300.00      0.00    -24.15      Open Pump
  FCV25W4             150.00      1.70    341.72    Active Valve
  FCV25W3             150.00      1.70    386.66    Active Valve
  FVC30W1             150.00      1.70    328.35    Active Valve
  FCV25W1             150.00      1.70    312.53    Active Valve
  FCV25W5             150.00      1.70    387.72    Active Valve
  FCV24W1             150.00      1.70    186.58    Active Valve
  FCV24W2             150.00      1.70    180.50    Active Valve
  FCV24W3             150.00      1.70    171.67    Active Valve
  FCV30W6             150.00      1.70    305.90    Active Valve
  FCV30W5             150.00      1.70    307.41    Active Valve
  FCV30W4             150.00      1.70    294.37    Active Valve
  FCV30W3             150.00      1.70    266.24    Active Valve
  FCV25W2             150.00      1.70    207.38    Active Valve
  FCV30W2             150.00      1.70    252.06    Active Valve
  
  Node Results at 2:00 Hrs:
  ----------------------------------------------------------------------
  Node                Demand      Head  Pressure   Quality
  ID                     GPM        ft       psi          
  ----------------------------------------------------------------------
  J8                    0.00   2825.12     13.89      0.00
  J9                    0.00   2820.86     13.37      0.00
  J7                    0.00   2832.22     19.59      0.00
  TERMINAL              0.00   2813.59      9.68      0.00
  J4                    0.00   2842.76     22.34      0.00
  J3                    0.00   2844.70     22.67      0.00
  J2                    0.00   2865.36     28.62      0.00


  Page 11                                                               
  Node Results at 2:00 Hrs: (continued)
  ----------------------------------------------------------------------
  Node                Demand      Head  Pressure   Quality
  ID                     GPM        ft       psi          
  ----------------------------------------------------------------------
  J1                    0.00   2869.03     29.08      0.00
  25W3                  0.00   3257.00    196.22      0.00
  25W4                  0.00   3207.00    173.75      0.00
  25W5                  0.00   2871.22     28.60      0.00
  25W1                  0.00   2846.41     20.59      0.00
  25W2                  0.00   2846.56     21.88      0.00
  30W1                  0.00   2880.59     33.11      0.00
  30W3                  0.00   2893.70     37.59      0.00
  30W5                  0.00   2909.53     41.63      0.00
  30W4                  0.00   2907.57     45.49      0.00
  30W6                  0.00   3217.00    171.90      0.00
  J6                    0.00   2903.74     39.66      0.00
  J5                    0.00   2886.36    901.33      0.00
  24W2                  0.00   3006.00     97.26      0.00
  24W3                  0.00   2992.00     86.50      0.00
  30W2                  0.00   2889.89     34.45      0.00
  24W1                  0.00   3017.00     99.45      0.00
  2                     0.00   2631.68     14.16      0.00
  3                     0.00   2639.11     21.28      0.00
  4                     0.00   2640.61     21.93      0.00
  5                     0.00   2652.19     34.74      0.00
  6                     0.00   2676.22     47.32      0.00
  7                     0.00   2700.89     55.85      0.00
  8                     0.00   2733.50     45.71      0.00
  10                    0.00   2739.98     45.92      0.00
  11                    0.00   2746.70     38.43      0.00
  12                    0.00   2786.49      7.15      0.00
  13                    0.00   2789.86      8.61      0.00
  14                    0.00   2764.77     12.90      0.00
  16                    0.00   2804.01     10.40      0.00
  17                    0.00   2755.46     32.70      0.00
  18                    0.00   2811.55      8.04      0.00
  19                    0.00   2810.36      7.09      0.00
  20                    0.00   2788.77      7.70      0.00
  21                    0.00   2697.76     57.52      0.00
  22                    0.00   2649.37     33.96      0.00
  23                    0.00   2644.95     27.71      0.00
  25W4FCV               0.00   2867.22     26.53      0.00
  25W3FCV               0.00   2872.28     29.53      0.00
  30W1FCV               0.00   3207.00    174.54      0.00
  25W1FCV               0.00   3157.00    155.17      0.00
  25W5FCV               0.00   3257.00    195.76      0.00
  24W1FCV               0.00   2832.36     19.44      0.00
  24W2FCV               0.00   2827.45     19.90      0.00
  24W3FCV               0.00   2822.27     12.96      0.00
  30W6FCV               0.00   2913.05     40.20      0.00
  30W5FCV               0.00   3215.00    173.99      0.00


  Page 12                                                               
  Node Results at 2:00 Hrs: (continued)
  ----------------------------------------------------------------------
  Node                Demand      Head  Pressure   Quality
  ID                     GPM        ft       psi          
  ----------------------------------------------------------------------
  30W4FCV               0.00   3200.00    172.20      0.00
  30W3FCV               0.00   3158.00    152.11      0.00
  25W2FCV               0.00   3052.00    110.89      0.00
  30W2FCV               0.00   3140.00    142.83      0.00
  WDS                 300.00   2650.74     23.28      0.00
  BOOST_IN              0.00   2626.65     12.85      0.00
  WDSFCV                0.00   2650.81     23.31      0.00
  TSR_MANIFOLD          0.00   2626.88     12.95      0.00
  BOOST_MANIFOLD        0.00   2626.69     12.86      0.00
  9                  -150.00   2700.00      0.00      0.00 Reservoir
  15                 -150.00   2650.00      0.00      0.00 Reservoir
  27                 -150.00   2700.00      0.00      0.00 Reservoir
  28                 -150.00   2495.00      0.00      0.00 Reservoir
  29                 -150.00   2583.00      0.00      0.00 Reservoir
  30                 -150.00   2643.00      0.00      0.00 Reservoir
  31                 -150.00   2658.00      0.00      0.00 Reservoir
  32                 -150.00   2660.00      0.00      0.00 Reservoir
  33                 -150.00   2650.00      0.00      0.00 Reservoir
  34                 -150.00   2600.00      0.00      0.00 Reservoir
  35                 -150.00   2460.00      0.00      0.00 Reservoir
  36                 -150.00   2449.00      0.00      0.00 Reservoir
  37                 -150.00   2435.00      0.00      0.00 Reservoir
  38                 -150.00   2601.00      0.00      0.00 Reservoir
  FGN                   0.00   2597.00      0.00      0.00 Reservoir
  TSR_ONE              90.39   2626.75     12.89      0.00 Tank
  BIG_ISR            1613.13   2808.51      7.16      0.00 Tank
  SMALL_ISR         -1976.48   2813.23      9.20      0.00 Tank
  TSR_TWO            2072.98   2626.75     12.89      0.00 Tank
  
  Link Results at 2:00 Hrs:
  ----------------------------------------------------------------------
  Link                  Flow  VelocityUnit Headloss    Status
  ID                     GPM       fps    ft/Kft
  ----------------------------------------------------------------------
  1                   150.00      1.70      1.70      Open
  2                   150.00      1.70      1.70      Open
  3                   150.00      1.70      1.70      Open
  4                   300.00      3.40      6.12      Open
  5                   450.01      5.11     12.97      Open
  6                   150.00      1.70      1.70      Open
  J3-J4               600.01      3.83      5.44      Open
  30W6-30W5           150.00      1.70      1.70      Open
  30W5-J6             300.00      3.40      6.12      Open
  30W3-J6             450.00      5.11     12.97      Open
  30W3-J5             600.01      3.83      5.44      Open
  12                  750.01      4.79      8.23      Open
  25W1-30W1           900.01      5.74     11.53      Open


  Page 13                                                               
  Link Results at 2:00 Hrs: (continued)
  ----------------------------------------------------------------------
  Link                  Flow  VelocityUnit Headloss    Status
  ID                     GPM       fps    ft/Kft
  ----------------------------------------------------------------------
  25W1-J4            1050.01      4.29      5.17      Open
  30W2-J5             150.00      1.70      1.70      Open
  30W4-J6             150.00      1.70      1.70      Open
  J4-J7              1650.02      4.68      4.92      Open
  J7-J8              1800.02      5.11      5.78      Open
  24W2-J8             150.00      1.70      1.70      Open
  J8-J9              1950.02      5.53      6.70      Open
  24W3-J9             150.00      1.70      1.70      Open
  J9-TERMINAL        2100.02      4.38      3.63      Open
  24W1-J7             150.00      1.70      1.70      Open
  P020               2463.37      3.31      1.68      Open
  P019               2463.37      3.31      1.68      Open
  P018               2463.37      3.31      1.68      Open
  P017               2463.37      3.31      1.68      Open
  P016               2463.37      3.31      1.68      Open
  P015               2463.37      3.31      1.68      Open
  P014               2463.37      3.31      1.68      Open
  P013               2463.37      3.31      1.68      Open
  P012               2463.37      3.31      1.68      Open
  P011               2463.37      3.31      1.68      Open
  P010               2463.37      3.31      1.68      Open
  P009               2463.37      3.31      1.68      Open
  P008               2463.37      3.31      1.68      Open
  P007               2463.37      3.31      1.68      Open
  P006               2463.37      3.31      1.68      Open
  P005               2463.37      3.31      1.68      Open
  P004               2463.37      3.31      1.68      Open
  P003               2463.37      3.31      1.68      Open
  P002               2463.37      3.31      1.68      Open
  P001               2463.37      3.31      1.68      Open
  15                 2100.02      4.38      3.63      Open
  16                 2463.37      3.31      1.68      Open
  8                 -1613.13      4.58      4.71      Open
  17                 2223.05      2.99      1.38      Open
  18                  300.00      0.40      0.03      Open
  7                   240.32      0.68      0.14      Open
  14                  150.07      0.43      0.06      Open
  19                  149.93      0.43      0.06      Open
  20                  300.00      0.40      0.07      Open
  P24W1               150.00      0.00   -557.00      Open Pump
  P24W3               150.00      0.00   -557.00      Open Pump
  P24W2               150.00      0.00   -557.00      Open Pump
  P25W2               150.00      0.00   -557.00      Open Pump
  P30W5               150.00      0.00   -557.00      Open Pump
  P30W4               150.00      0.00   -557.00      Open Pump
  P30W1               150.00      0.00   -557.00      Open Pump
  P25W1               150.00      0.00   -557.00      Open Pump


  Page 14                                                               
  Link Results at 2:00 Hrs: (continued)
  ----------------------------------------------------------------------
  Link                  Flow  VelocityUnit Headloss    Status
  ID                     GPM       fps    ft/Kft
  ----------------------------------------------------------------------
  P25W4               150.00      0.00   -557.00      Open Pump
  P25W3               150.00      0.00   -557.00      Open Pump
  P25W5               150.00      0.00   -557.00      Open Pump
  P30W2               150.00      0.00   -557.00      Open Pump
  P30W6               150.00      0.00   -557.00      Open Pump
  P30W3               150.00      0.00   -557.00      Open Pump
  BOOST_1             300.00      0.00    -24.15      Open Pump
  FCV25W4             150.00      1.70    339.77    Active Valve
  FCV25W3             150.00      1.70    384.71    Active Valve
  FVC30W1             150.00      1.70    326.40    Active Valve
  FCV25W1             150.00      1.70    310.59    Active Valve
  FCV25W5             150.00      1.70    385.77    Active Valve
  FCV24W1             150.00      1.70    184.64    Active Valve
  FCV24W2             150.00      1.70    178.55    Active Valve
  FCV24W3             150.00      1.70    169.72    Active Valve
  FCV30W6             150.00      1.70    303.95    Active Valve
  FCV30W5             150.00      1.70    305.46    Active Valve
  FCV30W4             150.00      1.70    292.43    Active Valve
  FCV30W3             150.00      1.70    264.30    Active Valve
  FCV25W2             150.00      1.70    205.44    Active Valve
  FCV30W2             150.00      1.70    250.11    Active Valve
  
  Node Results at 3:00 Hrs:
  ----------------------------------------------------------------------
  Node                Demand      Head  Pressure   Quality
  ID                     GPM        ft       psi          
  ----------------------------------------------------------------------
  J8                    0.00   2826.72     14.58      0.00
  J9                    0.00   2822.46     14.07      0.00
  J7                    0.00   2833.82     20.29      0.00
  TERMINAL              0.00   2815.19     10.37      0.00
  J4                    0.00   2844.36     23.03      0.00
  J3                    0.00   2846.30     23.36      0.00
  J2                    0.00   2866.96     29.32      0.00
  J1                    0.00   2870.63     29.77      0.00
  25W3                  0.00   3257.00    196.22      0.00
  25W4                  0.00   3207.00    173.75      0.00
  25W5                  0.00   2872.82     29.30      0.00
  25W1                  0.00   2848.01     21.28      0.00
  25W2                  0.00   2848.16     22.57      0.00
  30W1                  0.00   2882.19     33.80      0.00
  30W3                  0.00   2895.30     38.28      0.00
  30W5                  0.00   2911.13     42.32      0.00
  30W4                  0.00   2909.17     46.18      0.00
  30W6                  0.00   3217.00    171.90      0.00
  J6                    0.00   2905.34     40.36      0.00
  J5                    0.00   2887.96    902.03      0.00


  Page 15                                                               
  Node Results at 3:00 Hrs: (continued)
  ----------------------------------------------------------------------
  Node                Demand      Head  Pressure   Quality
  ID                     GPM        ft       psi          
  ----------------------------------------------------------------------
  24W2                  0.00   3006.00     97.26      0.00
  24W3                  0.00   2992.00     86.50      0.00
  30W2                  0.00   2891.49     35.15      0.00
  24W1                  0.00   3017.00     99.45      0.00
  2                     0.00   2631.74     14.18      0.00
  3                     0.00   2639.23     21.33      0.00
  4                     0.00   2640.75     21.99      0.00
  5                     0.00   2652.42     34.85      0.00
  6                     0.00   2676.66     47.51      0.00
  7                     0.00   2701.54     56.13      0.00
  8                     0.00   2734.42     46.11      0.00
  10                    0.00   2740.95     46.34      0.00
  11                    0.00   2747.73     38.88      0.00
  12                    0.00   2787.86      7.74      0.00
  13                    0.00   2791.26      9.21      0.00
  14                    0.00   2765.96     13.42      0.00
  16                    0.00   2805.53     11.06      0.00
  17                    0.00   2756.57     33.18      0.00
  18                    0.00   2813.14      8.73      0.00
  19                    0.00   2811.94      7.77      0.00
  20                    0.00   2790.16      8.30      0.00
  21                    0.00   2698.38     57.79      0.00
  22                    0.00   2649.58     34.05      0.00
  23                    0.00   2645.12     27.78      0.00
  25W4FCV               0.00   2868.82     27.22      0.00
  25W3FCV               0.00   2873.88     30.22      0.00
  30W1FCV               0.00   3207.00    174.54      0.00
  25W1FCV               0.00   3157.00    155.17      0.00
  25W5FCV               0.00   3257.00    195.76      0.00
  24W1FCV               0.00   2833.96     20.14      0.00
  24W2FCV               0.00   2829.05     20.59      0.00
  24W3FCV               0.00   2823.87     13.65      0.00
  30W6FCV               0.00   2914.64     40.89      0.00
  30W5FCV               0.00   3215.00    173.99      0.00
  30W4FCV               0.00   3200.00    172.20      0.00
  30W3FCV               0.00   3158.00    152.11      0.00
  25W2FCV               0.00   3052.00    110.89      0.00
  30W2FCV               0.00   3140.00    142.83      0.00
  WDS                 300.00   2650.75     23.29      0.00
  BOOST_IN              0.00   2626.67     12.86      0.00
  WDSFCV                0.00   2650.82     23.32      0.00
  TSR_MANIFOLD          0.00   2626.90     12.96      0.00
  BOOST_MANIFOLD        0.00   2626.71     12.87      0.00
  9                  -150.00   2700.00      0.00      0.00 Reservoir
  15                 -150.00   2650.00      0.00      0.00 Reservoir
  27                 -150.00   2700.00      0.00      0.00 Reservoir
  28                 -150.00   2495.00      0.00      0.00 Reservoir


  Page 16                                                               
  Node Results at 3:00 Hrs: (continued)
  ----------------------------------------------------------------------
  Node                Demand      Head  Pressure   Quality
  ID                     GPM        ft       psi          
  ----------------------------------------------------------------------
  29                 -150.00   2583.00      0.00      0.00 Reservoir
  30                 -150.00   2643.00      0.00      0.00 Reservoir
  31                 -150.00   2658.00      0.00      0.00 Reservoir
  32                 -150.00   2660.00      0.00      0.00 Reservoir
  33                 -150.00   2650.00      0.00      0.00 Reservoir
  34                 -150.00   2600.00      0.00      0.00 Reservoir
  35                 -150.00   2460.00      0.00      0.00 Reservoir
  36                 -150.00   2449.00      0.00      0.00 Reservoir
  37                 -150.00   2435.00      0.00      0.00 Reservoir
  38                 -150.00   2601.00      0.00      0.00 Reservoir
  FGN                   0.00   2597.00      0.00      0.00 Reservoir
  TSR_ONE              91.61   2626.76     12.90      0.00 Tank
  BIG_ISR            1598.90   2810.19      7.88      0.00 Tank
  SMALL_ISR         -1973.51   2814.83      9.89      0.00 Tank
  TSR_TWO            2083.02   2626.76     12.90      0.00 Tank
  
  Link Results at 3:00 Hrs:
  ----------------------------------------------------------------------
  Link                  Flow  VelocityUnit Headloss    Status
  ID                     GPM       fps    ft/Kft
  ----------------------------------------------------------------------
  1                   150.00      1.70      1.70      Open
  2                   150.00      1.70      1.70      Open
  3                   150.00      1.70      1.70      Open
  4                   300.00      3.40      6.12      Open
  5                   450.00      5.11     12.97      Open
  6                   150.00      1.70      1.70      Open
  J3-J4               600.01      3.83      5.44      Open
  30W6-30W5           150.00      1.70      1.70      Open
  30W5-J6             300.00      3.40      6.12      Open
  30W3-J6             450.00      5.11     12.97      Open
  30W3-J5             600.01      3.83      5.44      Open
  12                  750.01      4.79      8.23      Open
  25W1-30W1           900.01      5.74     11.53      Open
  25W1-J4            1050.01      4.29      5.17      Open
  30W2-J5             150.00      1.70      1.70      Open
  30W4-J6             150.00      1.70      1.70      Open
  J4-J7              1650.02      4.68      4.92      Open
  J7-J8              1800.02      5.11      5.78      Open
  24W2-J8             150.00      1.70      1.70      Open
  J8-J9              1950.02      5.53      6.70      Open
  24W3-J9             150.00      1.70      1.70      Open
  J9-TERMINAL        2100.02      4.38      3.63      Open
  24W1-J7             150.00      1.70      1.69      Open
  P020               2474.63      3.33      1.69      Open
  P019               2474.63      3.33      1.69      Open
  P018               2474.63      3.33      1.69      Open


  Page 17                                                               
  Link Results at 3:00 Hrs: (continued)
  ----------------------------------------------------------------------
  Link                  Flow  VelocityUnit Headloss    Status
  ID                     GPM       fps    ft/Kft
  ----------------------------------------------------------------------
  P017               2474.63      3.33      1.69      Open
  P016               2474.63      3.33      1.69      Open
  P015               2474.63      3.33      1.69      Open
  P014               2474.63      3.33      1.69      Open
  P013               2474.63      3.33      1.69      Open
  P012               2474.63      3.33      1.69      Open
  P011               2474.63      3.33      1.69      Open
  P010               2474.63      3.33      1.69      Open
  P009               2474.63      3.33      1.69      Open
  P008               2474.63      3.33      1.69      Open
  P007               2474.63      3.33      1.69      Open
  P006               2474.63      3.33      1.69      Open
  P005               2474.63      3.33      1.69      Open
  P004               2474.63      3.33      1.69      Open
  P003               2474.63      3.33      1.69      Open
  P002               2474.63      3.33      1.69      Open
  P001               2474.63      3.33      1.69      Open
  15                 2100.02      4.38      3.63      Open
  16                 2474.63      3.33      1.69      Open
  8                 -1598.90      4.54      4.64      Open
  17                 2233.15      3.00      1.40      Open
  18                  300.00      0.40      0.03      Open
  7                   241.48      0.69      0.14      Open
  14                  150.13      0.43      0.06      Open
  19                  149.87      0.43      0.06      Open
  20                  300.00      0.40      0.07      Open
  P24W1               150.00      0.00   -557.00      Open Pump
  P24W3               150.00      0.00   -557.00      Open Pump
  P24W2               150.00      0.00   -557.00      Open Pump
  P25W2               150.00      0.00   -557.00      Open Pump
  P30W5               150.00      0.00   -557.00      Open Pump
  P30W4               150.00      0.00   -557.00      Open Pump
  P30W1               150.00      0.00   -557.00      Open Pump
  P25W1               150.00      0.00   -557.00      Open Pump
  P25W4               150.00      0.00   -557.00      Open Pump
  P25W3               150.00      0.00   -557.00      Open Pump
  P25W5               150.00      0.00   -557.00      Open Pump
  P30W2               150.00      0.00   -557.00      Open Pump
  P30W6               150.00      0.00   -557.00      Open Pump
  P30W3               150.00      0.00   -557.00      Open Pump
  BOOST_1             300.00      0.00    -24.15      Open Pump
  FCV25W4             150.00      1.70    338.17    Active Valve
  FCV25W3             150.00      1.70    383.11    Active Valve
  FVC30W1             150.00      1.70    324.80    Active Valve
  FCV25W1             150.00      1.70    308.99    Active Valve
  FCV25W5             150.00      1.70    384.17    Active Valve
  FCV24W1             150.00      1.70    183.04    Active Valve


  Page 18                                                               
  Link Results at 3:00 Hrs: (continued)
  ----------------------------------------------------------------------
  Link                  Flow  VelocityUnit Headloss    Status
  ID                     GPM       fps    ft/Kft
  ----------------------------------------------------------------------
  FCV24W2             150.00      1.70    176.95    Active Valve
  FCV24W3             150.00      1.70    168.13    Active Valve
  FCV30W6             150.00      1.70    302.35    Active Valve
  FCV30W5             150.00      1.70    303.86    Active Valve
  FCV30W4             150.00      1.70    290.83    Active Valve
  FCV30W3             150.00      1.70    262.70    Active Valve
  FCV25W2             150.00      1.70    203.84    Active Valve
  FCV30W2             150.00      1.70    248.51    Active Valve
  
  Node Results at 4:00 Hrs:
  ----------------------------------------------------------------------
  Node                Demand      Head  Pressure   Quality
  ID                     GPM        ft       psi          
  ----------------------------------------------------------------------
  J8                    0.00   2828.41     15.32      0.00
  J9                    0.00   2824.15     14.80      0.00
  J7                    0.00   2835.51     21.02      0.00
  TERMINAL              0.00   2816.88     11.11      0.00
  J4                    0.00   2846.05     23.77      0.00
  J3                    0.00   2847.99     24.09      0.00
  J2                    0.00   2868.65     30.05      0.00
  J1                    0.00   2872.32     30.50      0.00
  25W3                  0.00   3257.00    196.22      0.00
  25W4                  0.00   3207.00    173.75      0.00
  25W5                  0.00   2874.51     30.03      0.00
  25W1                  0.00   2849.70     22.01      0.00
  25W2                  0.00   2849.85     23.30      0.00
  30W1                  0.00   2883.88     34.53      0.00
  30W3                  0.00   2896.99     39.01      0.00
  30W5                  0.00   2912.82     43.05      0.00
  30W4                  0.00   2910.86     46.91      0.00
  30W6                  0.00   3217.00    171.90      0.00
  J6                    0.00   2907.03     41.09      0.00
  J5                    0.00   2889.65    902.76      0.00
  24W2                  0.00   3006.00     97.26      0.00
  24W3                  0.00   2992.00     86.50      0.00
  30W2                  0.00   2893.18     35.88      0.00
  24W1                  0.00   3017.00     99.45      0.00
  2                     0.00   2631.78     14.20      0.00
  3                     0.00   2639.34     21.38      0.00
  4                     0.00   2640.87     22.04      0.00
  5                     0.00   2652.65     34.94      0.00
  6                     0.00   2677.10     47.71      0.00
  7                     0.00   2702.21     56.42      0.00
  8                     0.00   2735.39     46.53      0.00
  10                    0.00   2741.98     46.79      0.00
  11                    0.00   2748.82     39.35      0.00


  Page 19                                                               
  Node Results at 4:00 Hrs: (continued)
  ----------------------------------------------------------------------
  Node                Demand      Head  Pressure   Quality
  ID                     GPM        ft       psi          
  ----------------------------------------------------------------------
  12                    0.00   2789.31      8.37      0.00
  13                    0.00   2792.74      9.85      0.00
  14                    0.00   2767.21     13.96      0.00
  16                    0.00   2807.14     11.76      0.00
  17                    0.00   2757.74     33.68      0.00
  18                    0.00   2814.81      9.45      0.00
  19                    0.00   2813.60      8.49      0.00
  20                    0.00   2791.63      8.94      0.00
  21                    0.00   2699.02     58.07      0.00
  22                    0.00   2649.78     34.14      0.00
  23                    0.00   2645.28     27.85      0.00
  25W4FCV               0.00   2870.51     27.95      0.00
  25W3FCV               0.00   2875.57     30.95      0.00
  30W1FCV               0.00   3207.00    174.54      0.00
  25W1FCV               0.00   3157.00    155.17      0.00
  25W5FCV               0.00   3257.00    195.76      0.00
  24W1FCV               0.00   2835.65     20.87      0.00
  24W2FCV               0.00   2830.74     21.32      0.00
  24W3FCV               0.00   2825.56     14.38      0.00
  30W6FCV               0.00   2916.33     41.62      0.00
  30W5FCV               0.00   3215.00    173.99      0.00
  30W4FCV               0.00   3200.00    172.20      0.00
  30W3FCV               0.00   3158.00    152.11      0.00
  25W2FCV               0.00   3052.00    110.89      0.00
  30W2FCV               0.00   3140.00    142.83      0.00
  WDS                 300.00   2650.75     23.29      0.00
  BOOST_IN              0.00   2626.67     12.86      0.00
  WDSFCV                0.00   2650.82     23.32      0.00
  TSR_MANIFOLD          0.00   2626.90     12.96      0.00
  BOOST_MANIFOLD        0.00   2626.70     12.87      0.00
  9                  -150.00   2700.00      0.00      0.00 Reservoir
  15                 -150.00   2650.00      0.00      0.00 Reservoir
  27                 -150.00   2700.00      0.00      0.00 Reservoir
  28                 -150.00   2495.00      0.00      0.00 Reservoir
  29                 -150.00   2583.00      0.00      0.00 Reservoir
  30                 -150.00   2643.00      0.00      0.00 Reservoir
  31                 -150.00   2658.00      0.00      0.00 Reservoir
  32                 -150.00   2660.00      0.00      0.00 Reservoir
  33                 -150.00   2650.00      0.00      0.00 Reservoir
  34                 -150.00   2600.00      0.00      0.00 Reservoir
  35                 -150.00   2460.00      0.00      0.00 Reservoir
  36                 -150.00   2449.00      0.00      0.00 Reservoir
  37                 -150.00   2435.00      0.00      0.00 Reservoir
  38                 -150.00   2601.00      0.00      0.00 Reservoir
  FGN                   0.00   2597.00      0.00      0.00 Reservoir
  TSR_ONE              92.78   2626.76     12.90      0.00 Tank
  BIG_ISR            1601.38   2811.87      8.61      0.00 Tank


  Page 20                                                               
  Node Results at 4:00 Hrs: (continued)
  ----------------------------------------------------------------------
  Node                Demand      Head  Pressure   Quality
  ID                     GPM        ft       psi          
  ----------------------------------------------------------------------
  SMALL_ISR         -1987.99   2816.52     10.62      0.00 Tank
  TSR_TWO            2093.84   2626.76     12.90      0.00 Tank
  
  Link Results at 4:00 Hrs:
  ----------------------------------------------------------------------
  Link                  Flow  VelocityUnit Headloss    Status
  ID                     GPM       fps    ft/Kft
  ----------------------------------------------------------------------
  1                   150.00      1.70      1.70      Open
  2                   150.00      1.70      1.70      Open
  3                   150.00      1.70      1.70      Open
  4                   300.00      3.40      6.12      Open
  5                   450.00      5.11     12.97      Open
  6                   150.00      1.70      1.70      Open
  J3-J4               600.01      3.83      5.44      Open
  30W6-30W5           150.00      1.70      1.70      Open
  30W5-J6             300.00      3.40      6.12      Open
  30W3-J6             450.00      5.11     12.97      Open
  30W3-J5             600.01      3.83      5.44      Open
  12                  750.01      4.79      8.23      Open
  25W1-30W1           900.01      5.74     11.53      Open
  25W1-J4            1050.01      4.29      5.17      Open
  30W2-J5             150.00      1.70      1.70      Open
  30W4-J6             150.00      1.70      1.70      Open
  J4-J7              1650.02      4.68      4.92      Open
  J7-J8              1800.02      5.11      5.78      Open
  24W2-J8             150.00      1.70      1.70      Open
  J8-J9              1950.02      5.53      6.70      Open
  24W3-J9             150.00      1.70      1.70      Open
  J9-TERMINAL        2100.02      4.38      3.63      Open
  24W1-J7             150.00      1.70      1.70      Open
  P020               2486.63      3.34      1.71      Open
  P019               2486.63      3.34      1.71      Open
  P018               2486.63      3.34      1.71      Open
  P017               2486.63      3.34      1.71      Open
  P016               2486.63      3.34      1.71      Open
  P015               2486.63      3.34      1.71      Open
  P014               2486.63      3.34      1.71      Open
  P013               2486.63      3.34      1.71      Open
  P012               2486.63      3.34      1.71      Open
  P011               2486.63      3.34      1.71      Open
  P010               2486.63      3.34      1.71      Open
  P009               2486.63      3.34      1.71      Open
  P008               2486.63      3.34      1.71      Open
  P007               2486.63      3.34      1.71      Open
  P006               2486.63      3.34      1.71      Open
  P005               2486.63      3.34      1.71      Open


  Page 21                                                               
  Link Results at 4:00 Hrs: (continued)
  ----------------------------------------------------------------------
  Link                  Flow  VelocityUnit Headloss    Status
  ID                     GPM       fps    ft/Kft
  ----------------------------------------------------------------------
  P004               2486.63      3.34      1.71      Open
  P003               2486.63      3.34      1.71      Open
  P002               2486.63      3.34      1.71      Open
  P001               2486.63      3.34      1.71      Open
  15                 2100.02      4.38      3.63      Open
  16                 2486.63      3.34      1.71      Open
  8                 -1601.38      4.54      4.65      Open
  17                 2243.97      3.02      1.41      Open
  18                  300.00      0.40      0.03      Open
  7                   242.65      0.69      0.14      Open
  14                  150.13      0.43      0.06      Open
  19                  149.87      0.43      0.06      Open
  20                  300.00      0.40      0.07      Open
  P24W1               150.00      0.00   -557.00      Open Pump
  P24W3               150.00      0.00   -557.00      Open Pump
  P24W2               150.00      0.00   -557.00      Open Pump
  P25W2               150.00      0.00   -557.00      Open Pump
  P30W5               150.00      0.00   -557.00      Open Pump
  P30W4               150.00      0.00   -557.00      Open Pump
  P30W1               150.00      0.00   -557.00      Open Pump
  P25W1               150.00      0.00   -557.00      Open Pump
  P25W4               150.00      0.00   -557.00      Open Pump
  P25W3               150.00      0.00   -557.00      Open Pump
  P25W5               150.00      0.00   -557.00      Open Pump
  P30W2               150.00      0.00   -557.00      Open Pump
  P30W6               150.00      0.00   -557.00      Open Pump
  P30W3               150.00      0.00   -557.00      Open Pump
  BOOST_1             300.00      0.00    -24.15      Open Pump
  FCV25W4             150.00      1.70    336.48    Active Valve
  FCV25W3             150.00      1.70    381.42    Active Valve
  FVC30W1             150.00      1.70    323.11    Active Valve
  FCV25W1             150.00      1.70    307.30    Active Valve
  FCV25W5             150.00      1.70    382.49    Active Valve
  FCV24W1             150.00      1.70    181.35    Active Valve
  FCV24W2             150.00      1.70    175.26    Active Valve
  FCV24W3             150.00      1.70    166.44    Active Valve
  FCV30W6             150.00      1.70    300.66    Active Valve
  FCV30W5             150.00      1.70    302.18    Active Valve
  FCV30W4             150.00      1.70    289.14    Active Valve
  FCV30W3             150.00      1.70    261.01    Active Valve
  FCV25W2             150.00      1.70    202.15    Active Valve
  FCV30W2             150.00      1.70    246.82    Active Valve
  


  Page 22                                                               
  Node Results at 5:00 Hrs:
  ----------------------------------------------------------------------
  Node                Demand      Head  Pressure   Quality
  ID                     GPM        ft       psi          
  ----------------------------------------------------------------------
  J8                    0.00   2830.08     16.04      0.00
  J9                    0.00   2825.83     15.52      0.00
  J7                    0.00   2837.19     21.75      0.00
  TERMINAL              0.00   2818.55     11.83      0.00
  J4                    0.00   2847.73     24.49      0.00
  J3                    0.00   2849.66     24.82      0.00
  J2                    0.00   2870.32     30.77      0.00
  J1                    0.00   2874.00     31.23      0.00
  25W3                  0.00   3257.00    196.22      0.00
  25W4                  0.00   3207.00    173.75      0.00
  25W5                  0.00   2876.19     30.75      0.00
  25W1                  0.00   2851.37     22.74      0.00
  25W2                  0.00   2851.53     24.03      0.00
  30W1                  0.00   2885.56     35.26      0.00
  30W3                  0.00   2898.66     39.74      0.00
  30W5                  0.00   2914.50     43.78      0.00
  30W4                  0.00   2912.53     47.64      0.00
  30W6                  0.00   3217.00    171.90      0.00
  J6                    0.00   2908.70     41.81      0.00
  J5                    0.00   2891.32    903.48      0.00
  24W2                  0.00   3006.00     97.26      0.00
  24W3                  0.00   2992.00     86.50      0.00
  30W2                  0.00   2894.85     36.61      0.00
  24W1                  0.00   3017.00     99.45      0.00
  2                     0.00   2631.82     14.22      0.00
  3                     0.00   2639.45     21.43      0.00
  4                     0.00   2640.99     22.10      0.00
  5                     0.00   2652.88     35.04      0.00
  6                     0.00   2677.55     47.90      0.00
  7                     0.00   2702.87     56.71      0.00
  8                     0.00   2736.35     46.95      0.00
  10                    0.00   2743.00     47.23      0.00
  11                    0.00   2749.90     39.82      0.00
  12                    0.00   2790.75      8.99      0.00
  13                    0.00   2794.21     10.49      0.00
  14                    0.00   2768.45     14.49      0.00
  16                    0.00   2808.73     12.45      0.00
  17                    0.00   2758.90     34.19      0.00
  18                    0.00   2816.47     10.17      0.00
  19                    0.00   2815.25      9.21      0.00
  20                    0.00   2793.08      9.57      0.00
  21                    0.00   2699.66     58.35      0.00
  22                    0.00   2649.98     34.22      0.00
  23                    0.00   2645.44     27.92      0.00
  25W4FCV               0.00   2872.19     28.68      0.00
  25W3FCV               0.00   2877.25     31.68      0.00
  30W1FCV               0.00   3207.00    174.54      0.00


  Page 23                                                               
  Node Results at 5:00 Hrs: (continued)
  ----------------------------------------------------------------------
  Node                Demand      Head  Pressure   Quality
  ID                     GPM        ft       psi          
  ----------------------------------------------------------------------
  25W1FCV               0.00   3157.00    155.17      0.00
  25W5FCV               0.00   3257.00    195.76      0.00
  24W1FCV               0.00   2837.32     21.59      0.00
  24W2FCV               0.00   2832.41     22.05      0.00
  24W3FCV               0.00   2827.24     15.11      0.00
  30W6FCV               0.00   2918.01     42.35      0.00
  30W5FCV               0.00   3215.00    173.99      0.00
  30W4FCV               0.00   3200.00    172.20      0.00
  30W3FCV               0.00   3158.00    152.11      0.00
  25W2FCV               0.00   3052.00    110.89      0.00
  30W2FCV               0.00   3140.00    142.83      0.00
  WDS                 300.00   2650.75     23.29      0.00
  BOOST_IN              0.00   2626.67     12.86      0.00
  WDSFCV                0.00   2650.82     23.32      0.00
  TSR_MANIFOLD          0.00   2626.90     12.96      0.00
  BOOST_MANIFOLD        0.00   2626.70     12.87      0.00
  9                  -150.00   2700.00      0.00      0.00 Reservoir
  15                 -150.00   2650.00      0.00      0.00 Reservoir
  27                 -150.00   2700.00      0.00      0.00 Reservoir
  28                 -150.00   2495.00      0.00      0.00 Reservoir
  29                 -150.00   2583.00      0.00      0.00 Reservoir
  30                 -150.00   2643.00      0.00      0.00 Reservoir
  31                 -150.00   2658.00      0.00      0.00 Reservoir
  32                 -150.00   2660.00      0.00      0.00 Reservoir
  33                 -150.00   2650.00      0.00      0.00 Reservoir
  34                 -150.00   2600.00      0.00      0.00 Reservoir
  35                 -150.00   2460.00      0.00      0.00 Reservoir
  36                 -150.00   2449.00      0.00      0.00 Reservoir
  37                 -150.00   2435.00      0.00      0.00 Reservoir
  38                 -150.00   2601.00      0.00      0.00 Reservoir
  FGN                   0.00   2597.00      0.00      0.00 Reservoir
  TSR_ONE              93.94   2626.76     12.90      0.00 Tank
  BIG_ISR            1601.17   2813.54      9.33      0.00 Tank
  SMALL_ISR         -1999.60   2818.19     11.35      0.00 Tank
  TSR_TWO            2104.52   2626.76     12.90      0.00 Tank
  
  Link Results at 5:00 Hrs:
  ----------------------------------------------------------------------
  Link                  Flow  VelocityUnit Headloss    Status
  ID                     GPM       fps    ft/Kft
  ----------------------------------------------------------------------
  1                   150.00      1.70      1.70      Open
  2                   150.00      1.70      1.70      Open
  3                   150.00      1.70      1.70      Open
  4                   300.00      3.40      6.12      Open
  5                   450.00      5.11     12.97      Open
  6                   150.00      1.70      1.70      Open


  Page 24                                                               
  Link Results at 5:00 Hrs: (continued)
  ----------------------------------------------------------------------
  Link                  Flow  VelocityUnit Headloss    Status
  ID                     GPM       fps    ft/Kft
  ----------------------------------------------------------------------
  J3-J4               600.01      3.83      5.44      Open
  30W6-30W5           150.00      1.70      1.70      Open
  30W5-J6             300.00      3.40      6.12      Open
  30W3-J6             450.00      5.11     12.97      Open
  30W3-J5             600.01      3.83      5.44      Open
  12                  750.01      4.79      8.23      Open
  25W1-30W1           900.01      5.74     11.53      Open
  25W1-J4            1050.01      4.29      5.17      Open
  30W2-J5             150.00      1.70      1.70      Open
  30W4-J6             150.00      1.70      1.70      Open
  J4-J7              1650.01      4.68      4.92      Open
  J7-J8              1800.02      5.11      5.78      Open
  24W2-J8             150.00      1.70      1.70      Open
  J8-J9              1950.02      5.53      6.70      Open
  24W3-J9             150.00      1.70      1.70      Open
  J9-TERMINAL        2100.02      4.38      3.63      Open
  24W1-J7             150.00      1.70      1.69      Open
  P020               2498.45      3.36      1.72      Open
  P019               2498.45      3.36      1.72      Open
  P018               2498.45      3.36      1.72      Open
  P017               2498.45      3.36      1.72      Open
  P016               2498.45      3.36      1.72      Open
  P015               2498.45      3.36      1.72      Open
  P014               2498.45      3.36      1.72      Open
  P013               2498.45      3.36      1.72      Open
  P012               2498.45      3.36      1.72      Open
  P011               2498.45      3.36      1.72      Open
  P010               2498.45      3.36      1.72      Open
  P009               2498.45      3.36      1.72      Open
  P008               2498.45      3.36      1.72      Open
  P007               2498.45      3.36      1.72      Open
  P006               2498.45      3.36      1.72      Open
  P005               2498.45      3.36      1.72      Open
  P004               2498.45      3.36      1.72      Open
  P003               2498.45      3.36      1.72      Open
  P002               2498.45      3.36      1.72      Open
  P001               2498.45      3.36      1.72      Open
  15                 2100.02      4.38      3.63      Open
  16                 2498.45      3.36      1.72      Open
  8                 -1601.17      4.54      4.65      Open
  17                 2254.65      3.03      1.42      Open
  18                  300.00      0.40      0.03      Open
  7                   243.81      0.69      0.14      Open
  14                  150.13      0.43      0.06      Open
  19                  149.87      0.43      0.06      Open
  20                  300.00      0.40      0.07      Open
  P24W1               150.00      0.00   -557.00      Open Pump


  Page 25                                                               
  Link Results at 5:00 Hrs: (continued)
  ----------------------------------------------------------------------
  Link                  Flow  VelocityUnit Headloss    Status
  ID                     GPM       fps    ft/Kft
  ----------------------------------------------------------------------
  P24W3               150.00      0.00   -557.00      Open Pump
  P24W2               150.00      0.00   -557.00      Open Pump
  P25W2               150.00      0.00   -557.00      Open Pump
  P30W5               150.00      0.00   -557.00      Open Pump
  P30W4               150.00      0.00   -557.00      Open Pump
  P30W1               150.00      0.00   -557.00      Open Pump
  P25W1               150.00      0.00   -557.00      Open Pump
  P25W4               150.00      0.00   -557.00      Open Pump
  P25W3               150.00      0.00   -557.00      Open Pump
  P25W5               150.00      0.00   -557.00      Open Pump
  P30W2               150.00      0.00   -557.00      Open Pump
  P30W6               150.00      0.00   -557.00      Open Pump
  P30W3               150.00      0.00   -557.00      Open Pump
  BOOST_1             300.00      0.00    -24.15      Open Pump
  FCV25W4             150.00      1.70    334.81    Active Valve
[...]
  30W6FCV               0.00   2603.19    -94.06      0.00
  30W5FCV               0.00   2603.19    -91.11      0.00
  30W4FCV               0.00   2603.19    -86.40      0.00
  30W3FCV               0.00   2603.19    -88.29      0.00
  25W2FCV               0.00   2603.19    -83.57      0.00
  30W2FCV               0.00   2603.19    -89.77      0.00
  WDS                 300.00   2650.75     23.29      0.00
  BOOST_IN              0.00   2626.67     12.86      0.00
  WDSFCV                0.00   2650.82     23.32      0.00
  TSR_MANIFOLD          0.00   2626.89     12.95      0.00
  BOOST_MANIFOLD        0.00   2626.70     12.87      0.00
  9                     0.00   2700.00      0.00      0.00 Reservoir
  15                    0.00   2650.00      0.00      0.00 Reservoir
  27                    0.00   2700.00      0.00      0.00 Reservoir
  28                    0.00   2495.00      0.00      0.00 Reservoir
  29                    0.00   2583.00      0.00      0.00 Reservoir
  30                    0.00   2643.00      0.00      0.00 Reservoir
  31                    0.00   2658.00      0.00      0.00 Reservoir
  32                    0.00   2660.00      0.00      0.00 Reservoir
  33                    0.00   2650.00      0.00      0.00 Reservoir
  34                    0.00   2600.00      0.00      0.00 Reservoir
  35                    0.00   2460.00      0.00      0.00 Reservoir
  36                    0.00   2449.00      0.00      0.00 Reservoir
  37                    0.00   2435.00      0.00      0.00 Reservoir
  38                    0.00   2601.00      0.00      0.00 Reservoir
  FGN                   0.00   2597.00      0.00      0.00 Reservoir
  TSR_ONE              82.61   2626.76     12.90      0.00 Tank
  BIG_ISR            1215.23   2799.24      3.14      0.00 Tank
  SMALL_ISR         -3597.46   2802.03      4.35      0.00 Tank
  TSR_TWO            1999.62   2626.76     12.90      0.00 Tank
  


  Page 269                                                              
  Link Results at 71:00 Hrs:
  ----------------------------------------------------------------------
  Link                  Flow  VelocityUnit Headloss    Status
  ID                     GPM       fps    ft/Kft
  ----------------------------------------------------------------------
  1                     0.00      0.00      0.00      Open
  2                     0.00      0.00      0.00      Open
  3                     0.00      0.00      0.00      Open
  4                     0.00      0.00      0.00      Open
  5                     0.00      0.00      0.00      Open
  6                     0.00      0.00      0.00      Open
  J3-J4                 0.00      0.00      0.00      Open
  30W6-30W5             0.00      0.00      0.00      Open
  30W5-J6               0.00      0.00      0.00      Open
  30W3-J6               0.00      0.00      0.00      Open
  30W3-J5               0.00      0.00      0.00      Open
  12                    0.00      0.00      0.00      Open
  25W1-30W1             0.00      0.00      0.00      Open
  25W1-J4               0.00      0.00      0.00      Open
  30W2-J5               0.00      0.00      0.00      Open
  30W4-J6               0.00      0.00      0.00      Open
  J4-J7                 0.00      0.00      0.00      Open
  J7-J8                 0.00      0.00      0.00      Open
  24W2-J8               0.00      0.00      0.00      Open
  J8-J9                 0.00      0.00      0.00      Open
  24W3-J9               0.00      0.00      0.00      Open
  J9-TERMINAL           0.00      0.00      0.00      Open
  24W1-J7               0.00      0.00      0.00      Open
  P020               2382.22      3.20      1.58      Open
  P019               2382.22      3.20      1.58      Open
  P018               2382.22      3.20      1.58      Open
  P017               2382.22      3.20      1.57      Open
  P016               2382.22      3.20      1.58      Open
  P015               2382.22      3.20      1.58      Open
  P014               2382.22      3.20      1.58      Open
  P013               2382.22      3.20      1.58      Open
  P012               2382.22      3.20      1.58      Open
  P011               2382.22      3.20      1.58      Open
  P010               2382.22      3.20      1.58      Open
  P009               2382.22      3.20      1.58      Open
  P008               2382.22      3.20      1.58      Open
  P007               2382.22      3.20      1.58      Open
  P006               2382.22      3.20      1.58      Open
  P005               2382.22      3.20      1.58      Open
  P004               2382.22      3.20      1.58      Open
  P003               2382.22      3.20      1.58      Open
  P002               2382.22      3.20      1.58      Open
  P001               2382.22      3.20      1.58      Open
  15                    0.00      0.00      0.00    Closed
  16                 2382.22      3.20      1.58      Open
  8                 -1215.23      3.45      2.79      Open
  17                 2149.75      2.89      1.30      Open


  Page 270                                                              
  Link Results at 71:00 Hrs: (continued)
  ----------------------------------------------------------------------
  Link                  Flow  VelocityUnit Headloss    Status
  ID                     GPM       fps    ft/Kft
  ----------------------------------------------------------------------
  18                  300.00      0.40      0.03      Open
  7                   232.48      0.66      0.13      Open
  14                  150.13      0.43      0.06      Open
  19                  149.87      0.43      0.06      Open
  20                  300.00      0.40      0.07      Open
  P24W1                 0.00      0.00      0.00    Closed Pump
  P24W3                 0.00      0.00      0.00    Closed Pump
  P24W2                 0.00      0.00      0.00    Closed Pump
  P25W2                 0.00      0.00      0.00    Closed Pump
  P30W5                 0.00      0.00      0.00    Closed Pump
  P30W4                 0.00      0.00      0.00    Closed Pump
  P30W1                 0.00      0.00      0.00    Closed Pump
  P25W1                 0.00      0.00      0.00    Closed Pump
  P25W4                 0.00      0.00      0.00    Closed Pump
  P25W3                 0.00      0.00      0.00    Closed Pump
  P25W5                 0.00      0.00      0.00    Closed Pump
  P30W2                 0.00      0.00      0.00    Closed Pump
  P30W6                 0.00      0.00      0.00    Closed Pump
  P30W3                 0.00      0.00      0.00    Closed Pump
  BOOST_1             300.00      0.00    -24.15      Open Pump
  FCV25W4               0.00      0.00      0.00      Open Valve
  FCV25W3               0.00      0.00      0.00      Open Valve
  FVC30W1               0.00      0.00      0.00      Open Valve
  FCV25W1               0.00      0.00      0.00      Open Valve
  FCV25W5               0.00      0.00      0.00      Open Valve
  FCV24W1               0.00      0.00      0.00      Open Valve
  FCV24W2               0.00      0.00      0.00      Open Valve
  FCV24W3               0.00      0.00      0.00      Open Valve
  FCV30W6               0.00      0.00      0.00      Open Valve
  FCV30W5               0.00      0.00      0.00      Open Valve
  FCV30W4               0.00      0.00      0.00      Open Valve
  FCV30W3               0.00      0.00      0.00      Open Valve
  FCV25W2               0.00      0.00      0.00      Open Valve
  FCV30W2               0.00      0.00      0.00      Open Valve
  
  Node Results at 72:00 Hrs:
  ----------------------------------------------------------------------
  Node                Demand      Head  Pressure   Quality
  ID                     GPM        ft       psi          
  ----------------------------------------------------------------------
  J8                    0.00   2615.59    -76.90      0.00
  J9                    0.00   2615.59    -75.57      0.00
  J7                    0.00   2615.59    -74.27      0.00
  TERMINAL              0.00   2615.59    -76.11      0.00
  J4                    0.00   2615.59    -76.09      0.00
  J3                    0.00   2615.59    -76.61      0.00
  J2                    0.00   2615.59    -79.60      0.00


  Page 271                                                              
  Node Results at 72:00 Hrs: (continued)
  ----------------------------------------------------------------------
  Node                Demand      Head  Pressure   Quality
  ID                     GPM        ft       psi          
  ----------------------------------------------------------------------
  J1                    0.00   2615.59    -80.74      0.00
  25W3                  0.00   2615.59    -81.70      0.00
  25W4                  0.00   2615.59    -82.50      0.00
  25W5                  0.00   2615.59    -82.16      0.00
  25W1                  0.00   2615.59    -79.42      0.00
  25W2                  0.00   2615.59    -78.20      0.00
  30W1                  0.00   2615.59    -81.72      0.00
  30W3                  0.00   2615.59    -82.91      0.00
  30W5                  0.00   2615.59    -85.74      0.00
  30W4                  0.00   2615.59    -81.03      0.00
  30W6                  0.00   2615.59    -88.69      0.00
  J6                    0.00   2615.59    -85.19      0.00
  J5                    0.00   2615.59    784.01      0.00
  24W2                  0.00   2615.59    -71.90      0.00
  24W3                  0.00   2615.59    -76.60      0.00
  30W2                  0.00   2615.59    -84.40      0.00
  24W1                  0.00   2615.59    -74.48      0.00
  2                     0.00   2631.29     13.99      0.00
  3                     0.00   2638.11     20.85      0.00
  4                     0.00   2639.49     21.44      0.00
  5                     0.00   2650.12     33.85      0.00
  6                     0.00   2672.18     45.58      0.00
  7                     0.00   2694.83     53.22      0.00
  8                     0.00   2724.77     41.93      0.00
  10                    0.00   2730.72     41.91      0.00
  11                    0.00   2736.89     34.18      0.00
  12                    0.00   2773.42      1.48      0.00
  13                    0.00   2776.52      2.83      0.00
  14                    0.00   2753.48      8.01      0.00
  16                    0.00   2789.51      4.12      0.00
  17                    0.00   2744.94     28.14      0.00
  18                    0.00   2796.43      1.49      0.00
  19                    0.00   2795.34      0.58      0.00
  20                    0.00   2775.51      1.96      0.00
  21                    0.00   2691.96     55.01      0.00
  22                    0.00   2647.53     33.16      0.00
  23                    0.00   2643.47     27.07      0.00
  25W4FCV               0.00   2615.59    -82.50      0.00
  25W3FCV               0.00   2615.59    -81.70      0.00
  30W1FCV               0.00   2615.59    -81.72      0.00
  25W1FCV               0.00   2615.59    -79.42      0.00
  25W5FCV               0.00   2615.59    -82.16      0.00
  24W1FCV               0.00   2615.59    -74.48      0.00
  24W2FCV               0.00   2615.59    -71.90      0.00
  24W3FCV               0.00   2615.59    -76.60      0.00
  30W6FCV               0.00   2615.59    -88.69      0.00
  30W5FCV               0.00   2615.59    -85.74      0.00


  Page 272                                                              
  Node Results at 72:00 Hrs: (continued)
  ----------------------------------------------------------------------
  Node                Demand      Head  Pressure   Quality
  ID                     GPM        ft       psi          
  ----------------------------------------------------------------------
  30W4FCV               0.00   2615.59    -81.03      0.00
  30W3FCV               0.00   2615.59    -82.91      0.00
  25W2FCV               0.00   2615.59    -78.20      0.00
  30W2FCV               0.00   2615.59    -84.40      0.00
  WDS                 300.00   2650.75     23.29      0.00
  BOOST_IN              0.00   2626.67     12.86      0.00
  WDSFCV                0.00   2650.82     23.32      0.00
  TSR_MANIFOLD          0.00   2626.89     12.95      0.00
  BOOST_MANIFOLD        0.00   2626.70     12.87      0.00
  9                     0.00   2700.00      0.00      0.00 Reservoir
  15                    0.00   2650.00      0.00      0.00 Reservoir
  27                    0.00   2700.00      0.00      0.00 Reservoir
  28                    0.00   2495.00      0.00      0.00 Reservoir
  29                    0.00   2583.00      0.00      0.00 Reservoir
  30                    0.00   2643.00      0.00      0.00 Reservoir
  31                    0.00   2658.00      0.00      0.00 Reservoir
  32                    0.00   2660.00      0.00      0.00 Reservoir
  33                    0.00   2650.00      0.00      0.00 Reservoir
  34                    0.00   2600.00      0.00      0.00 Reservoir
  35                    0.00   2460.00      0.00      0.00 Reservoir
  36                    0.00   2449.00      0.00      0.00 Reservoir
  37                    0.00   2435.00      0.00      0.00 Reservoir
  38                    0.00   2601.00      0.00      0.00 Reservoir
  FGN                   0.00   2597.00      0.00      0.00 Reservoir
  TSR_ONE              79.69   2626.76     12.90      0.00 Tank
  BIG_ISR           -1044.00   2800.08      3.50      0.00 Tank
  SMALL_ISR         -1308.28   2797.97      2.59      0.00 Tank
  TSR_TWO            1972.60   2626.76     12.90      0.00 Tank
  
  Link Results at 72:00 Hrs:
  ----------------------------------------------------------------------
  Link                  Flow  VelocityUnit Headloss    Status
  ID                     GPM       fps    ft/Kft
  ----------------------------------------------------------------------
  1                     0.00      0.00      0.00      Open
  2                     0.00      0.00      0.00      Open
  3                     0.00      0.00      0.00      Open
  4                     0.00      0.00      0.00      Open
  5                     0.00      0.00      0.00      Open
  6                     0.00      0.00      0.00      Open
  J3-J4                 0.00      0.00      0.00      Open
  30W6-30W5             0.00      0.00      0.00      Open
  30W5-J6               0.00      0.00      0.00      Open
  30W3-J6               0.00      0.00      0.00      Open
  30W3-J5               0.00      0.00      0.00      Open
  12                    0.00      0.00      0.00      Open
  25W1-30W1             0.00      0.00      0.00      Open


  Page 273                                                              
  Link Results at 72:00 Hrs: (continued)
  ----------------------------------------------------------------------
  Link                  Flow  VelocityUnit Headloss    Status
  ID                     GPM       fps    ft/Kft
  ----------------------------------------------------------------------
  25W1-J4               0.00      0.00      0.00      Open
  30W2-J5               0.00      0.00      0.00      Open
  30W4-J6               0.00      0.00      0.00      Open
  J4-J7                 0.00      0.00      0.00      Open
  J7-J8                 0.00      0.00      0.00      Open
  24W2-J8               0.00      0.00      0.00      Open
  J8-J9                 0.00      0.00      0.00      Open
  24W3-J9               0.00      0.00      0.00      Open
  J9-TERMINAL           0.00      0.00      0.00      Open
  24W1-J7               0.00      0.00      0.00      Open
  P020               2352.28      3.16      1.54      Open
  P019               2352.28      3.16      1.54      Open
  P018               2352.28      3.16      1.54      Open
  P017               2352.28      3.16      1.54      Open
  P016               2352.28      3.16      1.54      Open
  P015               2352.28      3.16      1.54      Open
  P014               2352.28      3.16      1.54      Open
  P013               2352.28      3.16      1.54      Open
  P012               2352.28      3.16      1.54      Open
  P011               2352.28      3.16      1.54      Open
  P010               2352.28      3.16      1.54      Open
  P009               2352.28      3.16      1.54      Open
  P008               2352.28      3.16      1.54      Open
  P007               2352.28      3.16      1.54      Open
  P006               2352.28      3.16      1.54      Open
  P005               2352.28      3.16      1.54      Open
  P004               2352.28      3.16      1.54      Open
  P003               2352.28      3.16      1.54      Open
  P002               2352.28      3.16      1.54      Open
  P001               2352.28      3.16      1.54      Open
  15                    0.00      0.00      0.00    Closed
  16                 2352.28      3.16      1.54      Open
  8                  1044.00      2.96      2.11      Open
  17                 2122.73      2.85      1.27      Open
  18                  300.00      0.40      0.03      Open
  7                   229.56      0.65      0.13      Open
  14                  150.13      0.43      0.06      Open
  19                  149.87      0.43      0.06      Open
  20                  300.00      0.40      0.07      Open
  P24W1                 0.00      0.00      0.00    Closed Pump
  P24W3                 0.00      0.00      0.00    Closed Pump
  P24W2                 0.00      0.00      0.00    Closed Pump
  P25W2                 0.00      0.00      0.00    Closed Pump
  P30W5                 0.00      0.00      0.00    Closed Pump
  P30W4                 0.00      0.00      0.00    Closed Pump
  P30W1                 0.00      0.00      0.00    Closed Pump
  P25W1                 0.00      0.00      0.00    Closed Pump


  Page 274                                                              
  Link Results at 72:00 Hrs: (continued)
  ----------------------------------------------------------------------
  Link                  Flow  VelocityUnit Headloss    Status
  ID                     GPM       fps    ft/Kft
  ----------------------------------------------------------------------
  P25W4                 0.00      0.00      0.00    Closed Pump
  P25W3                 0.00      0.00      0.00    Closed Pump
  P25W5                 0.00      0.00      0.00    Closed Pump
  P30W2                 0.00      0.00      0.00    Closed Pump
  P30W6                 0.00      0.00      0.00    Closed Pump
  P30W3                 0.00      0.00      0.00    Closed Pump
  BOOST_1             300.00      0.00    -24.15      Open Pump
  FCV25W4               0.00      0.00      0.00      Open Valve
  FCV25W3               0.00      0.00      0.00      Open Valve
  FVC30W1               0.00      0.00      0.00      Open Valve
  FCV25W1               0.00      0.00      0.00      Open Valve
  FCV25W5               0.00      0.00      0.00      Open Valve
  FCV24W1               0.00      0.00      0.00      Open Valve
  FCV24W2               0.00      0.00      0.00      Open Valve
  FCV24W3               0.00      0.00      0.00      Open Valve
  FCV30W6               0.00      0.00      0.00      Open Valve
  FCV30W5               0.00      0.00      0.00      Open Valve
  FCV30W4               0.00      0.00      0.00      Open Valve
  FCV30W3               0.00      0.00      0.00      Open Valve
  FCV25W2               0.00      0.00      0.00      Open Valve
  FCV30W2               0.00      0.00      0.00      Open Valve
  
