
  EPA STORM WATER MANAGEMENT MODEL - VERSION 5.1 (Build 5.1.015)
  --------------------------------------------------------------

  WARNING 04: minimum elevation drop used for Conduit SpringCreek5
  WARNING 04: minimum elevation drop used for Conduit CarpentersBayou
  
  *********************************************************
  NOTE: The summary statistics displayed in this report are
  based on results found at every computational time step,  
  not just on results from each reporting time step.
  *********************************************************
  
  ****************
  Analysis Options
  ****************
  Flow Units ............... CFS
  Process Models:
    Rainfall/Runoff ........ YES
    RDII ................... NO
    Snowmelt ............... NO
    Groundwater ............ NO
    Flow Routing ........... YES
    Ponding Allowed ........ NO
    Water Quality .......... NO
  Infiltration Method ...... HORTON
  Flow Routing Method ...... KINWAVE
  Starting Date ............ 11/23/2007 00:00:00
  Ending Date .............. 11/28/2007 00:00:00
  Antecedent Dry Days ...... 0.0
  Report Time Step ......... 00:15:00
  Wet Time Step ............ 00:15:00
  Dry Time Step ............ 01:00:00
  Routing Time Step ........ 30.00 sec
  
  
  **************************        Volume         Depth
  Runoff Quantity Continuity     acre-feet        inches
  **************************     ---------       -------
  Total Precipitation ......    123924.792         3.500
  Evaporation Loss .........         0.000         0.000
  Infiltration Loss ........     88862.200         2.510
  Surface Runoff ...........     34814.488         0.983
  Final Storage ............       337.508         0.010
  Continuity Error (%) .....        -0.072
  
  
  **************************        Volume        Volume
  Flow Routing Continuity        acre-feet      10^6 gal
  **************************     ---------     ---------
  Dry Weather Inflow .......         0.000         0.000
  Wet Weather Inflow .......     34814.475     11344.817
  Groundwater Inflow .......         0.000         0.000
  RDII Inflow ..............         0.000         0.000
  External Inflow ..........         0.000         0.000
  External Outflow .........     44605.032     14535.216
  Flooding Loss ............      3742.794      1219.645
  Evaporation Loss .........         0.000         0.000
  Exfiltration Loss ........         0.000         0.000
  Initial Stored Volume ....         0.000         0.000
  Final Stored Volume ......      1753.817       571.507
  Continuity Error (%) .....       -43.910
  
  
  ********************************
  Highest Flow Instability Indexes
  ********************************
  All links are stable.
  
  
  *************************
  Routing Time Step Summary
  *************************
  Minimum Time Step           :    30.00 sec
  Average Time Step           :    30.00 sec
  Maximum Time Step           :    30.00 sec
  Percent in Steady State     :     0.00
  Average Iterations per Step :     1.00
  Percent Not Converging      :     0.00
  
  
  ***************************
  Subcatchment Runoff Summary
  ***************************
  
  ------------------------------------------------------------------------------------------------------------------------------
                            Total      Total      Total      Total     Imperv       Perv      Total       Total     Peak  Runoff
                           Precip      Runon       Evap      Infil     Runoff     Runoff     Runoff      Runoff   Runoff   Coeff
  Subcatchment                 in         in         in         in         in         in         in    10^6 gal      CFS
  ------------------------------------------------------------------------------------------------------------------------------
  1093s                      3.50       0.00       0.00       2.51       0.87       0.12       0.98       96.11  1127.02   0.281
  1069s                      3.50       0.00       0.00       2.51       0.87       0.12       0.98       96.11  1127.02   0.281
  1063s                      3.50       0.00       0.00       2.51       0.87       0.12       0.98       96.11  1127.02   0.281
  1049s                      3.50       0.00       0.00       2.51       0.87       0.12       0.98       96.11  1127.02   0.281
  1319s                      3.50       0.00       0.00       2.51       0.87       0.12       0.98       96.11  1127.02   0.281
  1339s                      3.50       0.00       0.00       2.51       0.87       0.12       0.98       96.11  1127.02   0.281
  1219s                      3.50       0.00       0.00       2.51       0.87       0.12       0.98       96.11  1127.02   0.281
  1189s                      3.50       0.00       0.00       2.51       0.87       0.12       0.98       96.11  1127.02   0.281
  1179s                      3.50       0.00       0.00       2.51       0.87       0.12       0.98       96.11  1127.02   0.281
  1178s                      3.50       0.00       0.00       2.51       0.87       0.12       0.98       96.11  1127.02   0.281
  1209s                      3.50       0.00       0.00       2.51       0.87       0.12       0.98       96.11  1127.02   0.281
  1173s                      3.50       0.00       0.00       2.51       0.87       0.12       0.98       96.11  1127.02   0.281
  1163s                      3.50       0.00       0.00       2.51       0.87       0.12       0.98       96.11  1127.02   0.281
  1153s                      3.50       0.00       0.00       2.51       0.87       0.12       0.98       96.11  1127.02   0.281
  1129s                      3.50       0.00       0.00       2.51       0.87       0.12       0.98       96.11  1127.02   0.281
  1119s                      3.50       0.00       0.00       2.51       0.87       0.12       0.98       96.11  1127.02   0.281
  1118s                      3.50       0.00       0.00       2.51       0.87       0.12       0.98       96.11  1127.02   0.281
  1109s                      3.50       0.00       0.00       2.51       0.87       0.12       0.98       96.11  1127.02   0.281
  763s                       3.50       0.00       0.00       2.51       0.87       0.12       0.98       96.11  1127.02   0.281
  758s                       3.50       0.00       0.00       2.51       0.87       0.12       0.98       96.11  1127.02   0.281
  789s                       3.50       0.00       0.00       2.51       0.87       0.12       0.98       96.11  1127.02   0.281
  739s                       3.50       0.00       0.00       2.51       0.87       0.12       0.98       96.11  1127.02   0.281
  1629s                      3.50       0.00       0.00       2.51       0.87       0.12       0.98       96.11  1127.02   0.281
  1639s                      3.50       0.00       0.00       2.51       0.87       0.12       0.98       96.11  1127.02   0.281
  1644s                      3.50       0.00       0.00       2.51       0.87       0.12       0.98       96.11  1127.02   0.281
  1659s                      3.50       0.00       0.00       2.51       0.87       0.12       0.98       96.11  1127.02   0.281
  1664s                      3.50       0.00       0.00       2.51       0.87       0.12       0.98       96.11  1127.02   0.281
  1669s                      3.50       0.00       0.00       2.51       0.87       0.12       0.98       96.11  1127.02   0.281
  554s                       3.50       0.00       0.00       2.51       0.87       0.12       0.98       96.11  1127.02   0.281
  549s                       3.50       0.00       0.00       2.51       0.87       0.12       0.98       96.11  1127.02   0.281
  544s                       3.50       0.00       0.00       2.51       0.87       0.12       0.98       96.11  1127.02   0.281
  594s                       3.50       0.00       0.00       2.51       0.87       0.12       0.98       96.11  1127.02   0.281
  584s                       3.50       0.00       0.00       2.51       0.87       0.12       0.98       96.11  1127.02   0.281
  539s                       3.50       0.00       0.00       2.51       0.87       0.12       0.98       96.11  1127.02   0.281
  589s                       3.50       0.00       0.00       2.51       0.87       0.12       0.98       96.11  1127.02   0.281
  578s                       3.50       0.00       0.00       2.51       0.87       0.12       0.98       96.11  1127.02   0.281
  534s                       3.50       0.00       0.00       2.51       0.87       0.12       0.98       96.11  1127.02   0.281
  579s                       3.50       0.00       0.00       2.51       0.87       0.12       0.98       96.11  1127.02   0.281
  573s                       3.50       0.00       0.00       2.51       0.87       0.12       0.98       96.11  1127.02   0.281
  1689s                      3.50       0.00       0.00       2.51       0.87       0.12       0.98       96.11  1127.02   0.281
  1679s                      3.50       0.00       0.00       2.51       0.87       0.12       0.98       96.11  1127.02   0.281
  1678s                      3.50       0.00       0.00       2.51       0.87       0.12       0.98       96.11  1127.02   0.281
  1619s                      3.50       0.00       0.00       2.51       0.87       0.12       0.98       96.11  1127.02   0.281
  1688s                      3.50       0.00       0.00       2.51       0.87       0.12       0.98       96.11  1127.02   0.281
  1459s                      3.50       0.00       0.00       2.51       0.87       0.12       0.98       96.11  1127.02   0.281
  1439s                      3.50       0.00       0.00       2.51       0.87       0.12       0.98       96.11  1127.02   0.281
  1419s                      3.50       0.00       0.00       2.51       0.87       0.12       0.98       96.11  1127.02   0.281
  713s                       3.50       0.00       0.00       2.51       0.87       0.12       0.98       96.11  1127.02   0.281
  719s                       3.50       0.00       0.00       2.51       0.87       0.12       0.98       96.11  1127.02   0.281
  3903s                      3.50       0.00       0.00       2.51       0.87       0.12       0.98       96.11  1127.02   0.281
  1539s                      3.50       0.00       0.00       2.51       0.87       0.12       0.98       96.11  1127.02   0.281
  1519s                      3.50       0.00       0.00       2.51       0.87       0.12       0.98       96.11  1127.02   0.281
  1723s                      3.50       0.00       0.00       2.51       0.87       0.12       0.98       96.11  1127.02   0.281
  1739s                      3.50       0.00       0.00       2.51       0.87       0.12       0.98       96.11  1127.02   0.281
  943s                       3.50       0.00       0.00       2.51       0.87       0.12       0.98       96.11  1127.02   0.281
  919s                       3.50       0.00       0.00       2.51       0.87       0.12       0.98       96.11  1127.02   0.281
  313s                       3.50       0.00       0.00       2.51       0.87       0.12       0.98       96.11  1127.02   0.281
  1649s                      3.50       0.00       0.00       2.51       0.87       0.12       0.98       96.11  1127.02   0.281
  339s                       3.50       0.00       0.00       2.51       0.87       0.12       0.98       96.11  1127.02   0.281
  359s                       3.50       0.00       0.00       2.51       0.87       0.12       0.98       96.11  1127.02   0.281
  369s                       3.50       0.00       0.00       2.51       0.87       0.12       0.98       96.11  1127.02   0.281
  379s                       3.50       0.00       0.00       2.51       0.87       0.12       0.98       96.11  1127.02   0.281
  839s                       3.50       0.00       0.00       2.51       0.87       0.12       0.98       96.11  1127.02   0.281
  829s                       3.50       0.00       0.00       2.51       0.87       0.12       0.98       96.11  1127.02   0.281
  819s                       3.50       0.00       0.00       2.51       0.87       0.12       0.98       96.11  1127.02   0.281
  1613s                      3.50       0.00       0.00       2.51       0.87       0.12       0.98       96.11  1127.02   0.281
  2209s                      3.50       0.00       0.00       2.51       0.87       0.12       0.98       96.11  1127.02   0.281
  2220s                      3.50       0.00       0.00       2.51       0.87       0.12       0.98       96.11  1127.02   0.281
  559s                       3.50       0.00       0.00       2.51       0.87       0.12       0.98       96.11  1127.02   0.281
  519s                       3.50       0.00       0.00       2.51       0.87       0.12       0.98       96.11  1127.02   0.281
  2239s                      3.50       0.00       0.00       2.51       0.87       0.12       0.98       96.11  1127.02   0.281
  2249s                      3.50       0.00       0.00       2.51       0.87       0.12       0.98       96.11  1127.02   0.281
  2263s                      3.50       0.00       0.00       2.51       0.87       0.12       0.98       96.11  1127.02   0.281
  2269s                      3.50       0.00       0.00       2.51       0.87       0.12       0.98       96.11  1127.02   0.281
  2289s                      3.50       0.00       0.00       2.51       0.87       0.12       0.98       96.11  1127.02   0.281
  2109s                      3.50       0.00       0.00       2.51       0.87       0.12       0.98       96.11  1127.02   0.281
  2119s                      3.50       0.00       0.00       2.51       0.87       0.12       0.98       96.11  1127.02   0.281
  2159s                      3.50       0.00       0.00       2.51       0.87       0.12       0.98       96.11  1127.02   0.281
  2149s                      3.50       0.00       0.00       2.51       0.87       0.12       0.98       96.11  1127.02   0.281
  2179s                      3.50       0.00       0.00       2.51       0.87       0.12       0.98       96.11  1127.02   0.281
  484s                       3.50       0.00       0.00       2.51       0.87       0.12       0.98       96.11  1127.02   0.281
  469s                       3.50       0.00       0.00       2.51       0.87       0.12       0.98       96.11  1127.02   0.281
  474s                       3.50       0.00       0.00       2.51       0.87       0.12       0.98       96.11  1127.02   0.281
  468s                       3.50       0.00       0.00       2.51       0.87       0.12       0.98       96.11  1127.02   0.281
  489s                       3.50       0.00       0.00       2.51       0.87       0.12       0.98       96.11  1127.02   0.281
  479s                       3.50       0.00       0.00       2.51       0.87       0.12       0.98       96.11  1127.02   0.281
  459s                       3.50       0.00       0.00       2.51       0.87       0.12       0.98       96.11  1127.02   0.281
  443s                       3.50       0.00       0.00       2.51       0.87       0.12       0.98       96.11  1127.02   0.281
  438s                       3.50       0.00       0.00       2.51       0.87       0.12       0.98       96.11  1127.02   0.281
  429s                       3.50       0.00       0.00       2.51       0.87       0.12       0.98       96.11  1127.02   0.281
  419s                       3.50       0.00       0.00       2.51       0.87       0.12       0.98       96.11  1127.02   0.281
  399s                       3.50       0.00       0.00       2.51       0.87       0.12       0.98       96.11  1127.02   0.281
  403s                       3.50       0.00       0.00       2.51       0.87       0.12       0.98       96.11  1127.02   0.281
  189s                       3.50       0.00       0.00       2.51       0.87       0.12       0.98       96.11  1127.02   0.281
  179s                       3.50       0.00       0.00       2.51       0.87       0.12       0.98       96.11  1127.02   0.281
  149s                       3.50       0.00       0.00       2.51       0.87       0.12       0.98       96.11  1127.02   0.281
  159s                       3.50       0.00       0.00       2.51       0.87       0.12       0.98       96.11  1127.02   0.281
  139s                       3.50       0.00       0.00       2.51       0.87       0.12       0.98       96.11  1127.02   0.281
  273s                       3.50       0.00       0.00       2.51       0.87       0.12       0.98       96.11  1127.02   0.281
  219s                       3.50       0.00       0.00       2.51       0.87       0.12       0.98       96.11  1127.02   0.281
  233s                       3.50       0.00       0.00       2.51       0.87       0.12       0.98       96.11  1127.02   0.281
  623s                       3.50       0.00       0.00       2.51       0.87       0.12       0.98       96.11  1127.02   0.281
  249s                       3.50       0.00       0.00       2.51       0.87       0.12       0.98       96.11  1127.02   0.281
  209s                       3.50       0.00       0.00       2.51       0.87       0.12       0.98       96.11  1127.02   0.281
  203s                       3.50       0.00       0.00       2.51       0.87       0.12       0.98       96.11  1127.02   0.281
  104s                       3.50       0.00       0.00       2.51       0.87       0.12       0.98       96.11  1127.02   0.281
  108s                       3.50       0.00       0.00       2.51       0.87       0.12       0.98       96.11  1127.02   0.281
  138s                       3.50       0.00       0.00       2.51       0.87       0.12       0.98       96.11  1127.02   0.281
  118s                       3.50       0.00       0.00       2.51       0.87       0.12       0.98       96.11  1127.02   0.281
  123s                       3.50       0.00       0.00       2.51       0.87       0.12       0.98       96.11  1127.02   0.281
  128s                       3.50       0.00       0.00       2.51       0.87       0.12       0.98       96.11  1127.02   0.281
  133s                       3.50       0.00       0.00       2.51       0.87       0.12       0.98       96.11  1127.02   0.281
  109s                       3.50       0.00       0.00       2.51       0.87       0.12       0.98       96.11  1127.02   0.281
  173s                       3.50       0.00       0.00       2.51       0.87       0.12       0.98       96.11  1127.02   0.281
  1693s                      3.50       0.00       0.00       2.51       0.87       0.12       0.98       96.11  1127.02   0.281
  1939s                      3.50       0.00       0.00       2.51       0.87       0.12       0.98       96.11  1127.02   0.281
  413s                       3.50       0.00       0.00       2.51       0.87       0.12       0.98       96.11  1127.02   0.281
  319s                       3.50       0.00       0.00       2.51       0.87       0.12       0.98       96.11  1127.02   0.281
  142                        3.50       0.00       0.00       2.00       0.87       0.63       1.50        0.20     3.09   0.429
  143                        3.50       0.00       0.00       2.00       0.87       0.63       1.50        0.20     3.09   0.429
  144                        3.50       0.00       0.00       2.00       0.87       0.63       1.50        0.20     3.09   0.429
  145                        3.50       0.00       0.00       2.00       0.87       0.63       1.50        0.20     3.09   0.429
  146                        3.50       0.00       0.00       2.00       0.87       0.63       1.50        0.20     3.09   0.429
  147                        3.50       0.00       0.00       2.00       0.87       0.63       1.50        0.20     3.09   0.429
  148                        3.50       0.00       0.00       2.00       0.87       0.63       1.50        0.20     3.09   0.429
  150                        3.50       0.00       0.00       2.00       0.87       0.63       1.50        0.20     3.09   0.429
  151                        3.50       0.00       0.00       2.00       0.87       0.63       1.50        0.20     3.09   0.429
  152                        3.50       0.00       0.00       2.00       0.87       0.63       1.50        0.20     3.09   0.429
  155                        3.50       0.00       0.00       2.00       0.87       0.63       1.50        0.20     3.09   0.429
  156                        3.50       0.00       0.00       2.00       0.87       0.63       1.50        0.20     3.09   0.429
  157                        3.50       0.00       0.00       2.00       0.87       0.63       1.50        0.20     3.09   0.429
  158                        3.50       0.00       0.00       2.00       0.87       0.63       1.50        0.20     3.09   0.429
  160                        3.50       0.00       0.00       2.00       0.87       0.63       1.50        0.20     3.09   0.429
  161                        3.50       0.00       0.00       2.00       0.87       0.63       1.50        0.20     3.09   0.429
  162                        3.50       0.00       0.00       2.00       0.87       0.63       1.50        0.20     3.09   0.429
  
  
  ******************
  Node Depth Summary
  ******************
  
  ---------------------------------------------------------------------------------
                                 Average  Maximum  Maximum  Time of Max    Reported
                                   Depth    Depth      HGL   Occurrence   Max Depth
  Node                 Type         Feet     Feet     Feet  days hr:min        Feet
  ---------------------------------------------------------------------------------
  1063                 JUNCTION     1.07    11.59   142.99     1  09:17       11.59
  789                  JUNCTION     0.46     3.68    47.68     1  08:00        3.68
  1069                 JUNCTION     1.08    12.65   147.75     1  08:00       12.64
  1049                 JUNCTION     0.79     8.42    80.92     1  08:18        8.41
  1093                 JUNCTION     0.80     5.74   207.94     1  08:00        5.73
  1319                 JUNCTION     0.71     8.44   123.84     1  08:00        8.43
  1339                 JUNCTION     0.33     4.64   150.14     1  08:00        4.64
  1939                 JUNCTION     0.68     6.37    46.27     1  08:00        6.37
  1189                 JUNCTION     0.51     5.59   204.99     1  08:00        5.59
  1219                 JUNCTION     0.82     5.55   149.75     1  08:00        5.54
  1129                 JUNCTION     3.17    18.16    99.46     1  11:09       18.16
  1119                 JUNCTION     3.26    14.47    79.07     1  14:39       14.47
  1118                 JUNCTION     3.11    14.48    57.68     1  14:40       14.47
  1109                 JUNCTION     3.21    14.42    55.92     1  15:40       14.41
  763                  JUNCTION     9.90    32.62    67.02     1  09:20       32.61
  1139                 JUNCTION     6.67    13.01    45.01     2  03:17       13.01
  1153                 JUNCTION     1.35    20.47   110.57     1  08:07       20.44
  1163                 JUNCTION     0.74     7.90   109.70     1  09:02        7.90
  1209                 JUNCTION     0.48     6.52   118.62     1  08:02        6.51
  1173                 JUNCTION     1.02    12.08   129.28     1  09:06       12.07
  1178                 JUNCTION     1.04    12.30   131.40     1  08:00       12.30
  1179                 JUNCTION     0.96    10.81   157.41     1  08:00       10.80
  1669                 JUNCTION     0.52     4.51   101.91     1  08:00        4.51
  1664                 JUNCTION     0.57     8.88    76.28     1  08:00        8.87
  1659                 JUNCTION     0.94     8.60    74.60     1  08:32        8.59
  1644                 JUNCTION     1.01     8.52    54.42     1  08:01        8.51
  1639                 JUNCTION     1.14     9.70    46.00     1  08:05        9.68
  1629                 JUNCTION     0.64     5.21    38.61     1  08:00        5.20
  1739                 JUNCTION     0.39     4.47    40.37     1  08:00        4.47
  1843                 JUNCTION     0.00     0.00     0.00     0  00:00        0.00
  739                  JUNCTION     6.66    12.97    42.47     2  05:29       12.97
  554                  JUNCTION     0.47     5.28   104.88     1  08:00        5.28
  2179                 JUNCTION     0.61     5.64   139.44     1  08:00        5.64
  2119                 JUNCTION     0.30     4.43    97.93     1  08:00        4.43
  549                  JUNCTION     0.59     5.81    88.81     1  08:00        5.81
  544                  JUNCTION     0.54     6.59    77.09     1  08:00        6.59
  594                  JUNCTION     0.29     4.64    71.94     1  08:00        4.64
  1689                 JUNCTION     0.70     6.00    67.60     1  08:00        6.00
  1693                 JUNCTION     0.98     9.54    34.44     1  08:30        9.54
  2159                 JUNCTION     0.48     7.32   104.42     1  08:00        7.31
  589                  JUNCTION     0.16     3.41    64.51     1  08:00        3.41
  578                  JUNCTION     0.46     7.18    49.18     1  08:07        7.15
  534                  JUNCTION     0.83    12.61    50.21     1  08:02       12.59
  579                  JUNCTION     0.19     4.65    51.85     1  08:00        4.65
  573                  JUNCTION     0.24     5.17    57.17     1  08:00        5.16
  1679                 JUNCTION     0.48     6.04    44.94     1  08:13        6.04
  1678                 JUNCTION     0.48     6.54    23.44     1  08:00        6.54
  1688                 JUNCTION     0.98    10.47    17.27     1  08:18       10.46
  1619                 JUNCTION     1.02    11.28     9.88     1  08:05       11.24
  1459                 JUNCTION     0.78    13.69    13.69     1  05:14       13.69
  713                  JUNCTION     2.84     5.94   -19.96     2  05:59        5.94
  1439                 JUNCTION     0.81    13.69    13.69     1  05:53       13.69
  839                  JUNCTION     0.48     3.35    34.55     1  08:00        3.35
  2149                 JUNCTION     0.17     3.67    98.57     1  08:00        3.67
  2109                 JUNCTION     0.48     7.27    78.37     1  08:22        7.25
  2249                 JUNCTION     0.31     4.38    57.88     1  08:00        4.37
  559                  JUNCTION     0.36     5.22    23.12     1  08:09        5.13
  829                  JUNCTION     0.45     8.66    23.16     1  08:00        8.65
  819                  JUNCTION     0.52     8.65    10.45     1  08:11        8.63
  1613                 JUNCTION     1.34    14.30    -8.00     1  08:17       14.30
  1419                 JUNCTION     0.39     5.61     2.61     1  08:00        5.61
  1539                 JUNCTION     0.50     6.51    10.81     1  08:00        6.51
  1519                 JUNCTION     0.48     6.59     1.39     1  08:14        6.59
  1723                 JUNCTION     0.54     5.68   -11.32     1  08:00        5.68
  2209                 JUNCTION     2.18    23.46    18.46     1  09:00       23.46
  2220                 JUNCTION     2.01    23.97    19.97     1  08:26       23.94
  519                  JUNCTION     1.03    13.76    18.06     1  08:13       13.76
  2239                 JUNCTION     1.26    16.46    13.16     1  08:18       16.45
  2263                 JUNCTION     0.94    11.38    33.88     1  08:42       11.38
  2269                 JUNCTION     1.04    12.74    43.84     1  08:33       12.74
  2289                 JUNCTION     0.70    12.87    46.17     1  08:00       12.86
  2039                 JUNCTION     0.12     0.40   127.70     1  08:00        0.40
  484                  JUNCTION     0.25     4.55    72.55     1  08:00        4.55
  469                  JUNCTION     0.55     7.93    58.23     1  08:00        7.93
  474                  JUNCTION     0.61     8.90    55.90     1  08:00        8.89
  468                  JUNCTION     0.58     8.89    52.59     1  08:03        8.87
  459                  JUNCTION     0.84    11.18    45.58     1  08:04       11.16
  479                  JUNCTION     0.38     6.26    64.86     1  08:08        6.17
  489                  JUNCTION     0.28     6.23    71.43     1  08:00        6.22
  443                  JUNCTION     0.93    11.36    36.36     1  08:13       11.35
  429                  JUNCTION     0.92    11.36    31.76     1  08:22       11.33
  419                  JUNCTION     0.83    12.39    26.99     1  08:01       12.38
  399                  JUNCTION     0.96    14.47    26.47     1  08:02       14.45
  403                  JUNCTION     0.97    15.19    25.69     1  08:02       15.17
  413                  JUNCTION     1.35    17.09    11.39     1  08:15       17.09
  438                  JUNCTION     0.19     5.05    39.65     1  08:00        5.05
  379                  JUNCTION     0.17     3.55    33.35     1  08:00        3.55
  369                  JUNCTION     0.31     5.78    26.08     1  08:00        5.78
  359                  JUNCTION     0.43     6.20    15.00     1  08:00        6.20
  339                  JUNCTION     0.95    12.54     8.74     1  08:00       12.53
  1649                 JUNCTION     0.26     3.66    57.06     1  08:00        3.66
  319                  JUNCTION     0.39     5.93     5.43     1  08:00        5.93
  313                  JUNCTION     0.17     3.73    18.73     1  08:00        3.73
  919                  JUNCTION     0.30     4.26     6.36     1  08:00        4.26
  943                  JUNCTION     0.30     4.26     4.96     1  08:00        4.26
  273                  JUNCTION     0.40     6.60     9.80     1  08:00        6.60
  623                  JUNCTION     0.29     4.19     2.19     1  08:00        4.19
  233                  JUNCTION     0.18     4.39     5.29     1  08:00        4.39
  219                  JUNCTION     0.85     9.19     7.99     1  08:00        9.19
  249                  JUNCTION     0.37     5.17    -2.63     1  08:00        5.17
  189                  JUNCTION     0.46     6.00    49.20     1  08:00        6.00
  179                  JUNCTION     0.47     6.23    32.13     1  08:00        6.22
  159                  JUNCTION     0.52     9.92     9.92     1  08:00        9.92
  139                  JUNCTION     0.60     5.83    15.73     1  08:00        5.83
  104                  JUNCTION     1.94    10.92    -4.68     1  12:05       10.89
  203                  JUNCTION     0.36     4.46    -7.54     1  08:00        4.46
  173                  JUNCTION     1.32    14.68    -0.32     1  09:56       14.68
  109                  JUNCTION     1.74    19.63     5.63     1  09:05       19.62
  128                  JUNCTION     0.29     4.19    23.69     1  08:00        4.19
  118                  JUNCTION     0.31     4.46    18.06     1  08:00        4.46
  108                  JUNCTION     0.40     6.64    14.74     1  08:00        6.63
  138                  JUNCTION     0.98    12.40    11.90     1  08:07       12.37
  123                  JUNCTION     0.95    12.39     2.79     1  08:20       12.37
  133                  JUNCTION     1.66    20.47     7.27     1  08:14       20.46
  209                  JUNCTION     0.87    10.42    -0.18     1  08:11       10.40
  114                  JUNCTION     0.00     0.00     0.00     0  00:00        0.00
  584                  JUNCTION     0.64     6.91    70.31     1  08:00        6.90
  539                  JUNCTION     0.45     7.19    66.49     1  08:00        7.19
  149                  JUNCTION     0.40     6.14    21.74     1  08:22        6.12
  758                  JUNCTION    17.67    30.04    64.44     2  02:18       30.04
  719                  JUNCTION     3.08     5.67   -12.13     2  05:42        5.67
  3903                 JUNCTION     6.61    12.08   -16.92     2  06:49       12.08
  TempJ1               JUNCTION     0.42     6.39     4.39     1  08:03        6.36
  TempJ2               JUNCTION     1.11    12.18     7.18     1  08:51       12.17
  TempJ3               JUNCTION     1.47    17.11     8.11     1  08:35       17.08
  TempJ4               JUNCTION     1.11    13.06     5.06     1  08:17       13.05
  TempJ5               JUNCTION     1.37    17.07    10.07     1  08:26       17.05
  TempJ6               JUNCTION     1.51    17.09     6.09     1  08:42       17.09
  TempJ7               JUNCTION     1.96    19.17    -0.83     1  09:06       19.15
  TempJ8               JUNCTION     1.84    17.22     7.22     1  09:19       17.21
  TempJ9               JUNCTION     0.49     7.24     2.24     1  08:06        7.20
  TempJ10              JUNCTION     2.89    29.38     4.38     1  09:04       29.37
  TempJ11              JUNCTION     2.94    29.34     2.34     1  09:17       29.33
  TempJ12              JUNCTION     9.48    50.00    20.00     1  08:11       50.00
  TempJ13              JUNCTION     9.36    50.00    18.00     1  11:07       50.00
  TempJ14              JUNCTION     7.98    43.99     9.99     1  11:37       37.90
  TempJ15              JUNCTION     0.13     0.34   100.34     1  08:00        0.34
  TempJ16              JUNCTION     0.12     0.28    65.28     1  08:00        0.28
  TempJ17              JUNCTION     0.13     0.55    40.55     1  08:00        0.55
  1                    OUTFALL      3.26    15.29   -24.71     1  11:37       13.79
  
  
  *******************
  Node Inflow Summary
  *******************
  
  -------------------------------------------------------------------------------------------------
                                  Maximum  Maximum                  Lateral       Total        Flow
                                  Lateral    Total  Time of Max      Inflow      Inflow     Balance
                                   Inflow   Inflow   Occurrence      Volume      Volume       Error
  Node                 Type           CFS      CFS  days hr:min    10^6 gal    10^6 gal     Percent
  -------------------------------------------------------------------------------------------------
  1063                 JUNCTION   1127.02  2271.24     1  08:33        96.1         307       0.000
  789                  JUNCTION   1127.02  1127.02     1  08:00        96.1        96.1       0.000
  1069                 JUNCTION   1127.02  2015.99     1  08:00        96.1         198       0.000
  1049                 JUNCTION   1127.02  4286.81     1  08:01        96.1         601       0.000
  1093                 JUNCTION   1127.02  1127.02     1  08:00        96.1        96.1       0.000
  1319                 JUNCTION   1127.02  2164.12     1  08:00        96.1         194       0.000
  1339                 JUNCTION   1127.02  1127.02     1  08:00        96.1        96.1       0.000
  1939                 JUNCTION   1127.02  1127.02     1  08:00        96.1        96.1       0.000
  1189                 JUNCTION   1127.02  1127.02     1  08:00        96.1        96.1       0.000
  1219                 JUNCTION   1127.02  1127.02     1  08:00        96.1        96.1       0.000
  1129                 JUNCTION   1127.02  5564.42     1  10:08        96.1    1.52e+03       0.000
  1119                 JUNCTION   1127.02  5262.53     1  14:38        96.1    1.71e+03       0.000
  1118                 JUNCTION   1127.02  5267.79     1  14:40        96.1    1.81e+03       0.000
  1109                 JUNCTION   1127.02  5228.03     1  15:40        96.1    1.92e+03       0.000
  763                  JUNCTION   1127.02  6454.18     1  09:20        96.1    2.66e+03       0.000
  1139                 JUNCTION      3.09  4709.23     2  03:17       0.204    4.78e+03       0.000
  1153                 JUNCTION   1127.02  6839.20     1  08:07        96.1         778       0.000
  1163                 JUNCTION   1127.02  5988.14     1  08:05        96.1         681       0.000
  1209                 JUNCTION   1127.02  2176.15     1  08:02        96.1         193       0.000
  1173                 JUNCTION   1127.02  3108.14     1  08:50        96.1         392       0.000
  1178                 JUNCTION   1127.02  2935.09     1  08:00        96.1         294       0.000
  1179                 JUNCTION   1127.02  2141.14     1  08:00        96.1         194       0.000
  1669                 JUNCTION   1127.02  1127.02     1  08:00        96.1        96.1       0.000
  1664                 JUNCTION   1127.02  2241.16     1  08:00        96.1         192       0.000
  1659                 JUNCTION   1127.02  2720.28     1  08:20        96.1         311       0.000
  1644                 JUNCTION   1127.02  3315.65     1  08:01        96.1         408       0.000
  1639                 JUNCTION   1127.02  4102.23     1  08:05        96.1         505       0.000
  1629                 JUNCTION   1127.02  1127.02     1  08:00        96.1        96.1       0.000
  1739                 JUNCTION   1127.02  1127.02     1  08:00        96.1        96.1       0.000
  1843                 JUNCTION      0.00     0.00     0  00:00           0           0       0.000 gal
  739                  JUNCTION   1127.02  4709.14     2  05:20        96.1    5.12e+03       0.000
  554                  JUNCTION   1127.02  1127.02     1  08:00        96.1        96.1       0.000
  2179                 JUNCTION   1127.02  1127.02     1  08:00        96.1        96.1       0.000
  2119                 JUNCTION   1127.02  1127.02     1  08:00        96.1        96.1       0.000
  549                  JUNCTION   1127.02  2206.33     1  08:00        96.1         192       0.000
  544                  JUNCTION   1127.02  3274.76     1  08:00        96.1         289       0.000
  594                  JUNCTION   1127.02  1127.02     1  08:00        96.1        96.1       0.000
  1689                 JUNCTION   1127.02  1127.02     1  08:00        96.1        96.1       0.000
  1693                 JUNCTION   1127.02  5696.82     1  08:13        96.1         700       0.000
  2159                 JUNCTION   1127.02  2116.17     1  08:00        96.1         197       0.000
  589                  JUNCTION   1127.02  1127.02     1  08:00        96.1        96.1       0.000
  578                  JUNCTION   1127.02  7528.17     1  08:02        96.1         673       0.000
  534                  JUNCTION   1127.02 10867.50     1  08:02        96.1         962       0.000
  579                  JUNCTION   1127.02  1127.02     1  08:00        96.1        96.1       0.000
  573                  JUNCTION   1127.02  1127.02     1  08:00        96.1        96.1       0.000
  1679                 JUNCTION   1127.02  2173.41     1  08:00        96.1         193       0.000
  1678                 JUNCTION   1127.02  3218.17     1  08:00        96.1         290       0.000
  1688                 JUNCTION   1127.02  6373.14     1  08:18        96.1         796       0.000
  1619                 JUNCTION   1127.02 10483.21     1  08:05        96.1    1.18e+03       0.000
  1459                 JUNCTION   1127.02  1127.02     1  08:00        96.1        96.1      -0.000
  713                  JUNCTION   1127.02  4708.68     2  05:59        96.1    5.29e+03       0.000
  1439                 JUNCTION   1127.02  1473.81     1  08:00        96.1         145       0.000
  839                  JUNCTION   1127.02  1127.02     1  08:00        96.1        96.1       0.000
  2149                 JUNCTION   1127.02  1127.02     1  08:00        96.1        96.1       0.000
  2109                 JUNCTION   1127.02  5182.88     1  08:09        96.1         490       0.000
  2249                 JUNCTION   1127.02  1127.02     1  08:00        96.1        96.1       0.000
  559                  JUNCTION   1127.02  2200.03     1  08:00        96.1         193       0.000
  829                  JUNCTION   1127.02  2190.45     1  08:00        96.1         192       0.000
  819                  JUNCTION   1127.02  3239.62     1  08:00        96.1         289       0.000
  1613                 JUNCTION   1127.02 11068.90     1  08:17        96.1    1.28e+03       0.000
  1419                 JUNCTION   1127.02  2600.33     1  08:00        96.1         241       0.000
  1539                 JUNCTION   1127.02  1127.02     1  08:00        96.1        96.1       0.000
  1519                 JUNCTION   1127.02  2168.96     1  08:00        96.1         194       0.000
  1723                 JUNCTION   1127.02  1733.30     1  08:00        96.1         207       0.000
  2209                 JUNCTION   1127.02 20818.06     1  08:59        96.1    2.47e+03       0.000
  2220                 JUNCTION   1127.02 21308.35     1  08:26        96.1    2.34e+03       0.000
  519                  JUNCTION   1127.02 11667.30     1  08:13        96.1    1.06e+03       0.000
  2239                 JUNCTION   1127.02  8693.79     1  08:18        96.1         981       0.000
  2263                 JUNCTION   1127.02  7209.20     1  08:09        96.1         783       0.000
  2269                 JUNCTION   1127.02  6593.18     1  08:26        96.1         686       0.000
  2289                 JUNCTION   1127.02  6085.01     1  08:00        96.1         586       0.000
  2039                 JUNCTION      3.09     3.09     1  08:00       0.204       0.204       0.000
  484                  JUNCTION   1127.02  1127.02     1  08:00        96.1        96.1       0.000
  469                  JUNCTION   1127.02  2124.57     1  08:00        96.1         193       0.000
  474                  JUNCTION   1127.02  3221.84     1  08:00        96.1         289       0.000
  468                  JUNCTION   1127.02  4322.61     1  08:00        96.1         385       0.000
  459                  JUNCTION   1127.02  7509.70     1  08:04        96.1         675       0.000
  479                  JUNCTION   1127.02  2206.87     1  08:00        96.1         192      -0.000
  489                  JUNCTION   1127.02  1127.02     1  08:00        96.1        96.1       0.000
  443                  JUNCTION   1127.02  8293.94     1  08:13        96.1         773       0.000
  429                  JUNCTION   1127.02 10332.21     1  08:04        96.1         966       0.000
  419                  JUNCTION   1127.02 11413.17     1  08:01        96.1    1.06e+03       0.000
  399                  JUNCTION   1127.02 12476.91     1  08:02        96.1    1.16e+03       0.000
  403                  JUNCTION   1127.02 13521.66     1  08:02        96.1    1.25e+03       0.000
  413                  JUNCTION   1127.02 14184.41     1  08:15        96.1    1.36e+03       0.000
  438                  JUNCTION   1127.02  1127.02     1  08:00        96.1        96.1       0.000
  379                  JUNCTION   1127.02  1127.02     1  08:00        96.1        96.1       0.000
  369                  JUNCTION   1127.02  2166.75     1  08:00        96.1         195       0.000
  359                  JUNCTION   1127.02  3194.12     1  08:00        96.1         291       0.000
  339                  JUNCTION   1127.02  4132.46     1  08:00        96.1         389       0.000
  1649                 JUNCTION   1127.02  1127.02     1  08:00        96.1        96.1       0.000
  319                  JUNCTION   1127.02  2230.98     1  08:00        96.1         192       0.000
  313                  JUNCTION   1127.02  1127.02     1  08:00        96.1        96.1       0.000
  919                  JUNCTION   1127.02  1127.02     1  08:00        96.1        96.1       0.000
  943                  JUNCTION   1127.02  1127.02     1  08:00        96.1        96.1       0.000
  273                  JUNCTION   1127.02  1127.02     1  08:00        96.1        96.1       0.000
  623                  JUNCTION   1127.02  1127.02     1  08:00        96.1        96.1       0.000
  233                  JUNCTION   1127.02  1127.02     1  08:00        96.1        96.1       0.000
  219                  JUNCTION   1127.02  2100.92     1  08:00        96.1         196       0.000
  249                  JUNCTION   1127.02  1127.02     1  08:00        96.1        96.1       0.000
  189                  JUNCTION   1127.02  1127.02     1  08:00        96.1        96.1       0.000
  179                  JUNCTION   1127.02  1868.19     1  08:00        96.1         201       0.000
  159                  JUNCTION   1127.02  1127.02     1  08:00        96.1        96.1       0.000
  139                  JUNCTION   1127.02  1127.02     1  08:00        96.1        96.1       0.000
  104                  JUNCTION   1127.02  8231.29     1  12:05        96.1    2.19e+03       0.000
  203                  JUNCTION   1127.02  1127.02     1  08:00        96.1        96.1       0.000
  173                  JUNCTION   1127.02  9678.86     1  09:55        96.1    1.29e+03       0.000
  109                  JUNCTION   1127.02 10334.13     1  09:00        96.1    1.19e+03       0.000
  128                  JUNCTION   1127.02  1127.02     1  08:00        96.1        96.1       0.000
  118                  JUNCTION   1127.02  1127.02     1  08:00        96.1        96.1       0.000
  108                  JUNCTION   1127.02  3805.70     1  08:00        96.1         395       0.000
  138                  JUNCTION   1127.02  6756.21     1  08:07        96.1         694       0.000
  123                  JUNCTION   1127.02  8579.73     1  08:13        96.1         887       0.000
  133                  JUNCTION   1127.02 10321.49     1  08:14        96.1    1.08e+03      -0.000
  209                  JUNCTION   1127.02  5013.45     1  08:11        96.1         495       0.000
  114                  JUNCTION      0.00     0.00     0  00:00           0           0       0.000 gal
  584                  JUNCTION   1127.02  2234.95     1  08:00        96.1         192       0.000
  539                  JUNCTION   1127.02  4281.93     1  08:00        96.1         385       0.000
  149                  JUNCTION   1127.02  2791.25     1  08:00        96.1         298       0.000
  758                  JUNCTION   1127.02  4719.78     2  02:18        96.1     4.8e+03       0.000
  719                  JUNCTION   1127.02  4708.81     2  05:42        96.1     5.2e+03       0.000
  3903                 JUNCTION   1127.02  4704.37     2  06:49        96.1    5.36e+03       0.000
  TempJ1               JUNCTION      3.09  3348.70     1  08:03       0.204         289       0.000
  TempJ2               JUNCTION      3.09  6484.36     1  08:10       0.204         686       0.000
  TempJ3               JUNCTION      3.09 20359.15     1  08:35       0.204    2.05e+03       0.000
  TempJ4               JUNCTION      3.09  6463.81     1  08:17       0.204         686       0.000
  TempJ5               JUNCTION      3.09 14123.62     1  08:26       0.204    1.36e+03       0.000
  TempJ6               JUNCTION      3.09 21602.36     1  08:39       0.204    2.24e+03       0.000
  TempJ7               JUNCTION      3.09 42550.79     1  09:06       0.204    5.01e+03       0.000
  TempJ8               JUNCTION      3.09 22478.96     1  09:14       0.204    2.76e+03       0.000
  TempJ9               JUNCTION      3.09  3222.54     1  08:06       0.204         289       0.000
  TempJ10              JUNCTION      3.09 52755.01     1  09:04       0.204    6.29e+03       0.000
  TempJ11              JUNCTION      3.09 52605.84     1  09:17       0.204     6.3e+03       0.000
  TempJ12              JUNCTION      3.09 57267.55     1  09:21       0.204    1.19e+04      -0.000
  TempJ13              JUNCTION      0.00 74897.17     1  11:07           0    1.23e+04      -0.000
  TempJ14              JUNCTION      0.00105436.53     1  11:37           0    1.45e+04       0.000
  TempJ15              JUNCTION      3.09     3.15     1  08:00       0.204       0.444       0.000
  TempJ16              JUNCTION      3.09     3.38     1  08:00       0.204       0.629       0.000
  TempJ17              JUNCTION      3.09     5.80     1  08:00       0.204       0.801       0.000
  1                    OUTFALL       0.00108907.91     1  11:37           0    1.45e+04       0.000
  
  
  *********************
  Node Flooding Summary
  *********************
  
  Flooding refers to all water that overflows a node, whether it ponds or not.
  --------------------------------------------------------------------------
                                                             Total   Maximum
                                 Maximum   Time of Max       Flood    Ponded
                        Hours       Rate    Occurrence      Volume    Volume
  Node                 Flooded       CFS   days hr:min    10^6 gal  1000 ft3
  --------------------------------------------------------------------------
  1459                    3.92    779.60      1  08:00      49.076     0.000
  TempJ12                 2.95  21461.56      1  09:21    1043.433     0.000
  TempJ13                 0.50  20938.94      1  11:08     127.046     0.000
  
  
  ***********************
  Outfall Loading Summary
  ***********************
  
  -----------------------------------------------------------
                         Flow       Avg       Max       Total
                         Freq      Flow      Flow      Volume
  Outfall Node           Pcnt       CFS       CFS    10^6 gal
  -----------------------------------------------------------
  1                     75.94   5922.57 108907.91   14534.137
  -----------------------------------------------------------
  System                75.94   5922.57 108907.91   14534.137
  
  
  ********************
  Link Flow Summary
  ********************
  
  -----------------------------------------------------------------------------
                                 Maximum  Time of Max   Maximum    Max/    Max/
                                  |Flow|   Occurrence   |Veloc|    Full    Full
  Link                 Type          CFS  days hr:min    ft/sec    Flow   Depth
  -----------------------------------------------------------------------------
  Cole                 CHANNEL   1133.28     1  08:04     13.86    0.01    0.15
  LittleWhiteOak1      CHANNEL   1145.17     1  08:09     14.51    0.04    0.34
  LittleWhiteOak2      CHANNEL   2193.53     1  08:06     15.24    0.01    0.14
  Brays1               CHANNEL   1147.65     1  08:14     10.51    0.05    0.26
  Brays2               CHANNEL   2123.10     1  08:04      8.95    0.05    0.30
  Brays3               CHANNEL   3216.56     1  08:03     11.98    0.06    0.28
  Brays4               CHANNEL   4325.68     1  08:08     11.63    0.06    0.22
  Brays5               CHANNEL   7515.20     1  08:18     12.08    0.22    0.43
  Brays6               CHANNEL   8294.06     1  08:22     11.96    0.15    0.38
  Brays7               CHANNEL  10332.21     1  08:04     40.11    0.04    0.20
  Brays8               CHANNEL  11403.41     1  08:04     15.47    0.18    0.38
  Brays8a              CHANNEL  12466.01     1  08:04     13.25    0.26    0.45
  Brays9               CHANNEL  13411.17     1  08:17     15.65    0.09    0.36
  KeegansBayou1        CHANNEL   1142.45     1  08:08      8.75    0.11    0.37
  KeegansBayou2        CHANNEL   2201.58     1  08:07     16.11    0.08    0.30
  WillowWateringHole   CHANNEL   1137.24     1  08:05     12.37    0.07    0.28
  SimsBayou1           CHANNEL   1158.23     1  08:14      7.44    0.02    0.14
  SimsBayou2           CHANNEL   2156.52     1  08:14     10.48    0.02    0.17
  SimsBayou3           CHANNEL   3153.45     1  08:15     10.06    0.03    0.17
  BerryBayou           CHANNEL   1133.76     1  08:04     12.00    0.03    0.19
  ClearCreek1          CHANNEL   1038.16     1  08:30     14.36    0.02    0.30
  ClearCreek2          CHANNEL   1808.80     1  08:22      8.64    0.03    0.27
  ClearCreek3          CHANNEL   2757.93     1  08:08     11.03    0.02    0.23
  ClearCreek3a         CHANNEL   3784.54     1  08:08     13.32    0.02    0.26
  ClearCreek4          CHANNEL   6697.69     1  08:20     14.10    0.03    0.47
  CleaCreek5           CHANNEL   8553.13     1  08:26      9.39    0.04    0.33
  ClearCreek6          CHANNEL   9918.56     1  09:05      5.84    0.09    0.59
  ClearCreek7          CHANNEL   9570.52     1  09:56      6.73    0.12    0.61
  ClearCreek8          CHANNEL   7706.79     1  13:25      1.92    0.03    0.25
  ArmandBayou1         CHANNEL   1152.22     1  08:15      6.41    0.05    0.31
  ArmandBayou2         CHANNEL   2013.18     1  08:31      7.82    0.03    0.35
  TaylorsBayou         CHANNEL   1151.20     1  08:11      5.70    0.00    0.16
  BigIslandSlough      CHANNEL   1143.01     1  08:15      7.53    0.03    0.17
  CypressCreek         CHANNEL   1161.65     1  08:15     12.94    0.01    0.31
  CypressCreek2        CHANNEL   2078.60     1  08:30     12.32    0.02    0.52
  CypressCreek3        CHANNEL   2666.83     1  09:06      7.47    0.03    0.47
  CypressCreek4        CHANNEL   3106.73     1  09:02     13.57    0.06    0.37
  CypressCreek5        CHANNEL   5962.81     1  08:15     14.35    0.03    0.30
  CypressCreek6        CHANNEL   5513.89     1  11:09     10.59    0.05    0.51
  CypressCreek7        CHANNEL   5257.11     1  14:39      8.56    0.14    0.44
  CypressCreek8        CHANNEL   5262.43     1  14:41     26.05    0.02    0.22
  CypressCreek9        CHANNEL   5224.17     1  15:40      5.34    0.20    0.47
  CypressCreek10       CHANNEL   5215.70     1  16:09      8.35    0.02    0.24
  SpringCreek5         CHANNEL   4719.31     2  02:18      0.63    0.09    0.54
  SpringCreek1         CHANNEL   1101.41     1  08:20     14.12    0.00    0.15
  SpringCreek2         CHANNEL   1697.19     1  10:37      7.41    0.00    0.30
  SpringCreek3         CHANNEL   2047.47     1  09:15     11.46    0.00    0.10
  SpringCreek4         CHANNEL   3746.09     1  09:57      8.83    0.00    0.12
  WillowCreek1         CHANNEL   1158.34     1  08:14     11.45    0.00    0.20
  WillowCreek2         CHANNEL   2148.58     1  08:18     14.30    0.03    0.44
  SanJacinto1          CHANNEL    741.57     1  10:00      6.14    0.00    0.11
  SanJacintoRiver2     CHANNEL   4708.50     2  05:42     12.02    0.00    0.09
  SanJacintoRiver3     CHANNEL   4708.38     2  05:59      8.10    0.00    0.07
  SanJacintoRiver4     CHANNEL   4704.10     2  06:49      4.94    0.00    0.12
  LuceBayou            CHANNEL    896.80     1  09:15      7.98    0.00    0.13
  LittleCypressCreek1  CHANNEL   1156.40     1  08:13     11.66    0.00    0.23
  LittleCypressCreek2  CHANNEL   2163.87     1  08:08     11.62    0.02    0.27
  SpringBranch         CHANNEL   1153.18     1  08:12     13.27    0.01    0.13
  WhiteOak1            CHANNEL   1142.92     1  08:08     11.93    0.01    0.30
  WhiteOak2            CHANNEL   2201.85     1  08:08     10.66    0.02    0.27
  WhiteOak3            CHANNEL   3255.14     1  08:12     10.94    0.01    0.27
  WhiteOak4            CHANNEL   4261.45     1  08:07     15.27    0.04    0.33
  WhiteOak5            CHANNEL   7527.12     1  08:04     18.99    0.05    0.26
  WhiteOak6            CHANNEL  10879.33     1  08:16     18.71    0.03    0.28
  WhiteOak7            CHANNEL  11648.23     1  08:23     14.52    0.02    0.30
  VogelCreek           CHANNEL   1132.42     1  08:03      8.48    0.09    0.27
  VogelCreek2          CHANNEL   2234.88     1  08:05     16.74    0.01    0.38
  GreensBayou1         CHANNEL   1130.42     1  08:02     16.84    0.01    0.26
  GreensBayou2         CHANNEL   2069.57     1  08:32      4.93    0.03    0.37
  GreensBayou3         CHANNEL   2663.55     1  08:45      9.59    0.00    0.23
  GreensBayou4         CHANNEL   3214.77     1  08:15     10.04    0.01    0.27
  GreensBayou5         CHANNEL   3921.57     1  08:30      9.44    0.01    0.26
  GreensBayou6         CHANNEL   5662.97     1  08:25     14.85    0.03    0.21
  GreensBayou7         CHANNEL   6372.59     1  08:21     18.68    0.01    0.23
  GreensBayou8         CHANNEL  10341.23     1  08:24     15.85    0.01    0.23
  GarnersBayou         CHANNEL   1148.61     1  08:10      8.38    0.00    0.19
  HallsBayou           CHANNEL   1154.78     1  08:13     10.37    0.01    0.29
  HallsBayou2          CHANNEL   2163.96     1  08:11     12.97    0.01    0.22
  HallsBayou3          CHANNEL   3188.76     1  08:11     12.43    0.02    0.22
  HuntingBayou         CHANNEL   1147.11     1  08:10      8.62    0.00    0.10
  HuntingBayou2        CHANNEL   2185.54     1  08:11     12.27    0.07    0.36
  CarpentersBayou      CHANNEL    497.93     1  05:35      1.29    1.44    1.00
  CarpentersBayou2     CHANNEL   1473.31     1  08:00     22.30    0.01    0.13
  CedarBayou           CHANNEL    949.49     1  08:40     11.87    0.00    0.09
  GooseCreek           CHANNEL   1157.17     1  08:14      8.58    0.01    0.27
  BuffaloBayou1        CHANNEL   5173.11     1  08:16     19.83    0.00    0.12
  BuffaloBayou2        CHANNEL   5978.85     1  08:33      7.58    0.03    0.30
  BuffaloBayou3        CHANNEL   6580.01     1  08:42     11.71    0.02    0.26
  BuffaloBayou4        CHANNEL   7128.27     1  08:58     14.12    0.01    0.17
  BuffaloBayou5        CHANNEL   8345.01     1  09:23      5.00    0.08    0.29
  BuffaloBayou6        CHANNEL  20385.57     1  09:00      6.51    0.10    0.40
  BearCreek1           CHANNEL   1157.04     1  08:15     16.98    0.01    0.24
  BearCreek2           CHANNEL   2069.95     1  08:22     11.11    0.05    0.35
  LanghamCreek         CHANNEL   1161.59     1  08:15     10.05    0.00    0.15
  MaydeCreek           CHANNEL   1143.92     1  08:15      9.85    0.02    0.15
  HorsepenBayou        CHANNEL   1151.06     1  08:11      5.76    0.02    0.18
  CowertCreek          CHANNEL   1154.38     1  08:12      9.85    0.01    0.09
  ChiggerCreek         CHANNEL   1147.37     1  08:10     11.13    0.01    0.08
  TurkeyCreek          CHANNEL   1148.12     1  08:10      8.87    0.01    0.24
  BeamerDitch          CHANNEL   1034.85     1  08:30      3.80    0.08    0.45
  Temp36               CHANNEL   2228.42     1  08:02      9.63    0.01    0.12
  Temp35               CHANNEL   1140.45     1  08:07     13.92    0.00    0.07
  Temp34               CHANNEL   3345.02     1  08:05     12.40    0.02    0.13
  Temp33               CHANNEL   3823.22     1  08:51      4.69    0.09    0.24
  Temp32               CHANNEL  14122.78     1  08:26      7.53    0.23    0.34
  Temp31               CHANNEL  14053.11     1  08:37      8.56    0.19    0.32
  Temp30               CHANNEL   6462.66     1  08:17     10.42    0.05    0.19
  Temp29               CHANNEL   6338.63     1  08:30      5.82    0.11    0.26
  Temp28               CHANNEL   1136.29     1  08:05     10.11    0.01    0.08
  Temp27               CHANNEL   1135.09     1  08:04     10.03    0.01    0.08
  Temp26               CHANNEL  20320.41     1  08:42     10.73    0.23    0.34
  Temp25               CHANNEL  20596.69     1  09:19     10.82    0.24    0.34
  Temp24               CHANNEL   3220.20     1  08:06     10.32    0.02    0.14
  Temp23               CHANNEL   3211.43     1  08:16      9.42    0.02    0.14
  Temp22               CHANNEL  22446.96     1  09:20     17.17    0.13    0.28
  Temp21               CHANNEL  21589.18     1  08:44     18.65    0.11    0.27
  Temp20               CHANNEL  42535.87     1  09:11     18.42    0.32    0.38
  Temp19               CHANNEL  10985.23     1  08:37      8.35    0.14    0.28
  Temp18               CHANNEL  52605.80     1  09:17     12.23    0.85    0.59
  Temp17               CHANNEL   2623.95     1  08:06     13.44    0.01    0.11
  Temp16               CHANNEL  52569.92     1  09:24     15.80    0.57    0.49
  Temp15               CHANNEL   4702.99     2  07:15      4.88    0.09    0.24
  Temp14               CHANNEL  74081.78     1  11:07     11.72    2.07    0.85
  Temp13               CHANNEL   2160.98     1  08:05     15.16    0.01    0.09
  Temp12               CHANNEL   1658.77     1  08:26      8.30    0.01    0.11
  Temp11               CHANNEL  99231.80     1  11:37     16.45    1.85    0.81
  Temp10               CHANNEL   8160.66     1  12:40     11.03    0.07    0.22
  Temp9                CHANNEL   1147.07     1  08:10     11.10    0.01    0.08
  Temp8                CHANNEL 108907.91     1  11:37    >50.00    0.17    0.30
  Temp7                CHANNEL   4709.23     2  03:17      5.24    0.08    0.23
  Temp6                CHANNEL   4666.45     2  05:29      4.25    0.11    0.26
  Temp5                CHANNEL      0.98     1  09:15      4.72    0.00    0.00
  Temp4                CHANNEL      1.16     1  09:45      4.72    0.00    0.00
  Temp3                CHANNEL      3.23     1  08:15      8.29    0.00    0.01
  Temp2                CHANNEL      4.94     1  08:30      4.57    0.00    0.01
  Temp1                CHANNEL   4856.90     1  08:38      7.42    0.06    0.20
  BrickhouseGulley     CHANNEL   1130.28     1  08:02     13.30    0.06    0.24
  
  
  *************************
  Conduit Surcharge Summary
  *************************
  
  ----------------------------------------------------------------------------
                                                           Hours        Hours 
                         --------- Hours Full --------   Above Full   Capacity
  Conduit                Both Ends  Upstream  Dnstream   Normal Flow   Limited
  ----------------------------------------------------------------------------
  CarpentersBayou             3.92      3.92      3.92      3.86         3.92
  Temp14                      2.94      2.94      2.94      2.94         2.94
  Temp11                      0.49      0.49      0.49      0.44         0.49
  

  Analysis begun on:  Tue Mar 16 01:57:52 2021
  Analysis ended on:  Tue Mar 16 01:57:59 2021
  Total elapsed time: 00:00:07