
  EPA STORM WATER MANAGEMENT MODEL - VERSION 5.1 (Build 5.1.007)
  --------------------------------------------------------------

  
  *********************************************************
  NOTE: The summary statistics displayed in this report are
  based on results found at every computational time step,  
  not just on results from each reporting time step.
  *********************************************************
  
  ****************
  Analysis Options
  ****************
  Flow Units ............... CFS
  Process Models:
    Rainfall/Runoff ........ NO
    RDII ................... NO
    Snowmelt ............... NO
    Groundwater ............ NO
    Flow Routing ........... YES
    Ponding Allowed ........ NO
    Water Quality .......... NO
  Flow Routing Method ...... DYNWAVE
  Starting Date ............ NOV-05-2015 00:00:00
  Ending Date .............. NOV-05-2015 06:00:00
  Antecedent Dry Days ...... 0.0
  Report Time Step ......... 00:05:00
  Routing Time Step ........ 1.00 sec
  Variable Time Step ....... YES
  Maximum Trials ........... 8
  Head Tolerance ........... 0.005000 ft
  
  
  **************************        Volume        Volume
  Flow Routing Continuity        acre-feet      10^6 gal
  **************************     ---------     ---------
  Dry Weather Inflow .......         0.000         0.000
  Wet Weather Inflow .......         0.000         0.000
  Groundwater Inflow .......         0.000         0.000
  RDII Inflow ..............         0.000         0.000
  External Inflow ..........        95.205        31.024
  External Outflow .........        94.509        30.797
  Internal Outflow .........         0.000         0.000
  Evaporation Loss .........         0.000         0.000
  Exfiltration Loss ........         0.000         0.000
  Initial Stored Volume ....         0.543         0.177
  Final Stored Volume ......         1.043         0.340
  Continuity Error (%) .....         0.203
  
  
  ***************************
  Time-Step Critical Elements
  ***************************
  None
  
  
  ********************************
  Highest Flow Instability Indexes
  ********************************
  Link 25 (4)
  Link 20 (4)
  Link 27 (4)
  Link 23 (4)
  Link 29 (4)
  
  
  *************************
  Routing Time Step Summary
  *************************
  Minimum Time Step           :     0.82 sec
  Average Time Step           :     1.00 sec
  Maximum Time Step           :     1.00 sec
  Percent in Steady State     :     0.00
  Average Iterations per Step :     2.04
  Percent Not Converging      :     0.14
  
  
  ******************
  Node Depth Summary
  ******************
  
  ---------------------------------------------------------------------
                                 Average  Maximum  Maximum  Time of Max
                                   Depth    Depth      HGL   Occurrence
  Node                 Type         Feet     Feet     Feet  days hr:min
  ---------------------------------------------------------------------
  2                    JUNCTION     4.56     5.69     5.78     0  00:02
  3                    JUNCTION     4.47     5.84     6.01     0  00:02
  4                    JUNCTION     4.39     5.84     6.11     0  00:02
  5                    JUNCTION     4.30     5.74     6.09     0  00:02
  6                    JUNCTION     4.21     5.72     6.15     0  00:02
  7                    JUNCTION     4.13     5.63     6.15     0  00:02
  8                    JUNCTION     4.04     5.47     6.08     0  00:02
  9                    JUNCTION     3.95     5.48     6.18     0  00:02
  10                   JUNCTION     3.86     5.31     6.10     0  00:02
  11                   JUNCTION     3.78     5.24     6.12     0  00:02
  12                   JUNCTION     3.69     5.24     6.20     0  00:02
  13                   JUNCTION     3.60     5.03     6.08     0  00:02
  14                   JUNCTION     3.51     5.07     6.21     0  00:02
  15                   JUNCTION     3.43     5.22     6.45     0  00:02
  16                   JUNCTION     3.34     5.40     6.71     0  00:02
  17                   JUNCTION     3.25     5.54     6.94     0  00:02
  18                   JUNCTION     3.16     5.61     7.10     0  00:02
  19                   JUNCTION     3.08     5.57     7.14     0  00:02
  20                   JUNCTION     2.99     5.50     7.17     0  00:02
  21                   JUNCTION     2.90     5.71     7.46     0  00:00
  22                   JUNCTION     2.82     5.92     7.76     0  00:00
  23                   JUNCTION     2.73     5.39     7.31     0  00:02
  24                   JUNCTION     2.64     5.41     7.42     0  00:01
  25                   JUNCTION     2.56     5.26     7.36     0  00:01
  26                   JUNCTION     2.47     5.28     7.47     0  00:01
  27                   JUNCTION     2.39     5.20     7.47     0  00:01
  28                   JUNCTION     2.31     5.16     7.53     0  00:01
  29                   JUNCTION     2.23     5.13     7.58     0  00:01
  30                   JUNCTION     2.16     5.09     7.63     0  00:01
  31                   JUNCTION     2.10     5.06     7.69     0  00:01
  32                   JUNCTION     2.04     5.00     7.71     0  00:01
  33                   JUNCTION     1.99     5.04     7.84     0  00:01
  34                   JUNCTION     1.94     5.00     7.89     0  00:01
  35                   JUNCTION     1.90     4.78     7.75     0  00:01
  38                   JUNCTION     1.87     5.87     8.93     0  00:01
  1                    OUTFALL      4.65     4.65     4.65     0  00:00
  
  
  *******************
  Node Inflow Summary
  *******************
  
  -------------------------------------------------------------------------------------------------
                                  Maximum  Maximum                  Lateral       Total        Flow
                                  Lateral    Total  Time of Max      Inflow      Inflow     Balance
                                   Inflow   Inflow   Occurrence      Volume      Volume       Error
  Node                 Type           CFS      CFS  days hr:min    10^6 gal    10^6 gal     Percent
  -------------------------------------------------------------------------------------------------
  2                    JUNCTION      0.00   709.27     0  00:02           0        31.3       0.035
  3                    JUNCTION      0.00   673.91     0  00:00           0        31.2       0.034
  4                    JUNCTION      0.00   720.29     0  00:00           0        31.2       0.034
  5                    JUNCTION      0.00   727.33     0  00:00           0        31.2       0.033
  6                    JUNCTION      0.00   741.70     0  00:00           0        31.2       0.032
  7                    JUNCTION      0.00   731.26     0  00:00           0        31.2       0.031
  8                    JUNCTION      0.00   703.13     0  00:00           0        31.2       0.030
  9                    JUNCTION      0.00   691.63     0  00:00           0        31.2       0.029
  10                   JUNCTION      0.00   680.90     0  00:00           0        31.2       0.028
  11                   JUNCTION      0.00   652.88     0  00:00           0        31.1       0.028
  12                   JUNCTION      0.00   630.15     0  00:00           0        31.1       0.027
  13                   JUNCTION      0.00   626.36     0  00:00           0        31.1       0.026
  14                   JUNCTION      0.00   603.97     0  00:00           0        31.1       0.025
  15                   JUNCTION      0.00   574.89     0  00:00           0        31.1       0.024
  16                   JUNCTION      0.00   572.87     0  00:00           0        31.1       0.023
  17                   JUNCTION      0.00   553.39     0  00:00           0        31.1       0.022
  18                   JUNCTION      0.00   528.92     0  00:00           0        31.1       0.022
  19                   JUNCTION      0.00   525.45     0  00:00           0        31.1       0.021
  20                   JUNCTION      0.00   515.85     0  00:00           0          31       0.019
  21                   JUNCTION      0.00   673.63     0  00:00           0          31       0.019
  22                   JUNCTION      0.00   644.79     0  00:00           0          31       0.018
  23                   JUNCTION      0.00   552.14     0  00:00           0          31       0.017
  24                   JUNCTION      0.00   574.09     0  00:00           0          31       0.016
  25                   JUNCTION      0.00   537.90     0  00:01           0          31       0.015
  26                   JUNCTION      0.00   572.56     0  00:01           0          31       0.015
  27                   JUNCTION      0.00   547.95     0  00:01           0          31       0.014
  28                   JUNCTION      0.00   516.07     0  00:01           0          31       0.013
  29                   JUNCTION      0.00   467.53     0  00:01           0          31       0.012
  30                   JUNCTION      0.00   481.95     0  00:01           0          31       0.011
  31                   JUNCTION      0.00   479.89     0  00:01           0          31       0.011
  32                   JUNCTION      0.00   481.44     0  00:01           0          31       0.010
  33                   JUNCTION      0.00   464.39     0  00:01           0          31       0.010
  34                   JUNCTION      0.00   443.67     0  00:01           0          31       0.009
  35                   JUNCTION      0.00   421.15     0  00:01           0          31       0.009
  38                   JUNCTION    192.00   324.69     0  00:01          31          31       0.005
  1                    OUTFALL       0.00   808.39     0  00:02           0        31.3       0.000
  
  
  **********************
  Node Surcharge Summary
  **********************
  
  No nodes were surcharged.
  
  
  *********************
  Node Flooding Summary
  *********************
  
  No nodes were flooded.
  
  
  ***********************
  Outfall Loading Summary
  ***********************
  
  -----------------------------------------------------------
                         Flow       Avg       Max       Total
                         Freq      Flow      Flow      Volume
  Outfall Node           Pcnt       CFS       CFS    10^6 gal
  -----------------------------------------------------------
  1                    100.00    193.58    808.39      31.251
  -----------------------------------------------------------
  System               100.00    193.58    808.39      31.251
  
  
  ********************
  Link Flow Summary
  ********************
  
  -----------------------------------------------------------------------------
                                 Maximum  Time of Max   Maximum    Max/    Max/
                                  |Flow|   Occurrence   |Veloc|    Full    Full
  Link                 Type          CFS  days hr:min    ft/sec    Flow   Depth
  -----------------------------------------------------------------------------
  1                    CONDUIT    270.43     0  00:01      7.32    0.11    0.49
  2                    CONDUIT    286.92     0  00:01      7.32    0.11    0.49
  3                    CONDUIT    284.67     0  00:01      7.34    0.11    0.50
  4                    CONDUIT    292.74     0  00:01      7.35    0.12    0.50
  5                    CONDUIT    299.46     0  00:01      7.37    0.12    0.50
  6                    CONDUIT    318.22     0  00:01      7.39    0.13    0.51
  7                    CONDUIT    338.95     0  00:01      7.40    0.13    0.51
  8                    CONDUIT    358.86     0  00:01      7.57    0.14    0.51
  9                    CONDUIT    364.33     0  00:01      7.81    0.14    0.52
  10                   CONDUIT    364.79     0  00:01      8.03    0.14    0.52
  11                   CONDUIT    375.18     0  00:01      8.21    0.15    0.53
  12                   CONDUIT    410.26     0  00:00      8.48    0.16    0.53
  13                   CONDUIT    383.67     0  00:00      8.66    0.15    0.54
  14                   CONDUIT    395.56     0  00:00      8.83    0.16    0.54
  15                   CONDUIT    500.25     0  00:00      9.06    0.20    0.54
  16                   CONDUIT    504.98     0  00:00      9.25    0.20    0.55
  17                   CONDUIT    525.38     0  00:00      9.29    0.21    0.56
  18                   CONDUIT    528.92     0  00:00      9.50    0.21    0.55
  19                   CONDUIT    553.39     0  00:00      9.58    0.22    0.54
  20                   CONDUIT    572.87     0  00:00      9.70    0.23    0.53
  21                   CONDUIT    574.89     0  00:00      9.83    0.23    0.51
  22                   CONDUIT    603.97     0  00:00      9.94    0.24    0.50
  23                   CONDUIT    626.36     0  00:00     10.04    0.25    0.51
  24                   CONDUIT    630.15     0  00:00     10.18    0.25    0.52
  25                   CONDUIT    652.88     0  00:00     10.17    0.26    0.52
  26                   CONDUIT    680.90     0  00:00     10.38    0.27    0.54
  27                   CONDUIT    691.63     0  00:00     10.43    0.27    0.54
  28                   CONDUIT    703.13     0  00:00     10.60    0.28    0.55
  29                   CONDUIT    731.26     0  00:00     10.62    0.29    0.56
  30                   CONDUIT    741.70     0  00:00     10.69    0.29    0.57
  31                   CONDUIT    727.33     0  00:00     10.81    0.29    0.58
  32                   CONDUIT    720.29     0  00:00     10.74    0.28    0.58
  33                   CONDUIT    709.27     0  00:02     10.97    0.28    0.57
  34                   CONDUIT    808.39     0  00:02     11.04    0.32    0.52
  35                   CONDUIT    323.66     0  00:01      7.25    0.13    0.51
  
  
  ***************************
  Flow Classification Summary
  ***************************
  
  -------------------------------------------------------------------------------------
                      Adjusted    ---------- Fraction of Time in Flow Class ---------- 
                       /Actual         Up    Down  Sub   Sup   Up    Down  Norm  Inlet 
  Conduit               Length    Dry  Dry   Dry   Crit  Crit  Crit  Crit  Ltd   Ctrl  
  -------------------------------------------------------------------------------------
  1                       1.00   0.00  0.00  0.00  1.00  0.00  0.00  0.00  0.00  0.00
  2                       1.00   0.00  0.00  0.00  1.00  0.00  0.00  0.00  0.00  0.00
  3                       1.00   0.00  0.00  0.00  1.00  0.00  0.00  0.00  0.00  0.00
  4                       1.00   0.00  0.00  0.00  1.00  0.00  0.00  0.00  0.00  0.00
  5                       1.00   0.00  0.00  0.00  1.00  0.00  0.00  0.00  0.00  0.00
  6                       1.00   0.00  0.00  0.00  1.00  0.00  0.00  0.00  0.00  0.00
  7                       1.00   0.00  0.00  0.00  1.00  0.00  0.00  0.00  0.00  0.00
  8                       1.00   0.00  0.00  0.00  1.00  0.00  0.00  0.00  0.00  0.00
  9                       1.00   0.00  0.00  0.00  1.00  0.00  0.00  0.00  0.00  0.00
  10                      1.00   0.00  0.00  0.00  1.00  0.00  0.00  0.00  0.00  0.00
  11                      1.00   0.00  0.00  0.00  1.00  0.00  0.00  0.00  0.00  0.00
  12                      1.00   0.00  0.00  0.00  1.00  0.00  0.00  0.00  0.00  0.00
  13                      1.00   0.00  0.00  0.00  1.00  0.00  0.00  0.00  0.00  0.00
  14                      1.00   0.00  0.00  0.00  1.00  0.00  0.00  0.00  0.00  0.00
  15                      1.00   0.00  0.00  0.00  1.00  0.00  0.00  0.00  0.00  0.00
  16                      1.00   0.00  0.00  0.00  1.00  0.00  0.00  0.00  0.00  0.00
  17                      1.00   0.00  0.00  0.00  1.00  0.00  0.00  0.00  0.00  0.00
  18                      1.00   0.00  0.00  0.00  1.00  0.00  0.00  0.00  0.00  0.00
  19                      1.00   0.00  0.00  0.00  1.00  0.00  0.00  0.00  0.00  0.00
  20                      1.00   0.00  0.00  0.00  1.00  0.00  0.00  0.00  0.00  0.00
  21                      1.00   0.00  0.00  0.00  1.00  0.00  0.00  0.00  0.00  0.00
  22                      1.00   0.00  0.00  0.00  1.00  0.00  0.00  0.00  0.00  0.00
  23                      1.00   0.00  0.00  0.00  1.00  0.00  0.00  0.00  0.00  0.00
  24                      1.00   0.00  0.00  0.00  1.00  0.00  0.00  0.00  0.00  0.00
  25                      1.00   0.00  0.00  0.00  1.00  0.00  0.00  0.00  0.00  0.00
  26                      1.00   0.00  0.00  0.00  1.00  0.00  0.00  0.00  0.00  0.00
  27                      1.00   0.00  0.00  0.00  1.00  0.00  0.00  0.00  0.00  0.00
  28                      1.00   0.00  0.00  0.00  1.00  0.00  0.00  0.00  0.00  0.00
  29                      1.00   0.00  0.00  0.00  1.00  0.00  0.00  0.00  0.00  0.00
  30                      1.00   0.00  0.00  0.00  1.00  0.00  0.00  0.00  0.00  0.00
  31                      1.00   0.00  0.00  0.00  1.00  0.00  0.00  0.00  0.00  0.00
  32                      1.00   0.00  0.00  0.00  1.00  0.00  0.00  0.00  0.00  0.00
  33                      1.00   0.00  0.00  0.00  1.00  0.00  0.00  0.00  0.00  0.00
  34                      1.00   0.00  0.00  0.00  1.00  0.00  0.00  0.00  0.00  0.00
  35                      1.00   0.00  0.00  0.00  1.00  0.00  0.00  0.00  0.00  0.00
  
  
  *************************
  Conduit Surcharge Summary
  *************************
  
  No conduits were surcharged.
  

  Analysis begun on:  Wed May 03 14:43:00 2017
  Analysis ended on:  Wed May 03 14:43:02 2017
  Total elapsed time: 00:00:02