  Page 1                                             3/5/2018 8:26:55 AM
  **********************************************************************
  *                             E P A N E T                            *
  *                     Hydraulic and Water Quality                    *
  *                     Analysis for Pipe Networks                     *
  *                           Version 2.0                              *
  **********************************************************************
  
  Input File: ES6-3.net
  
  
  
  Link - Node Table:
  ----------------------------------------------------------------------
  Link           Start          End                Length  Diameter
  ID             Node           Node                   ft        in
  ----------------------------------------------------------------------
  1              2              1                    4000        10
  2              2              3                    6000        10
  3              1              4                    6000        12
  4              2              5                    6500        24
  5              3              6                    7000        10
  6              5              4                    3000        18
  7              5              6                    5000        10
  8              YoureWelcome   2                     300        12
  
  Node Results:
  ----------------------------------------------------------------------
  Node                Demand      Head  Pressure   Quality
  ID                     GPM        ft       psi          
  ----------------------------------------------------------------------
  1                   500.00    286.07     50.29      0.00
  2                   500.00    293.52     49.19      0.00
  3                   500.00    260.26     41.28      0.00
  4                  1500.00    286.04     56.78      0.00
  5                  1000.00    288.04     59.81      0.00
  6                  1500.00    251.56     46.17      0.00
  YoureWelcome      -5500.00    315.00     58.50      0.00 Tank
  
  Link Results:
  ----------------------------------------------------------------------
  Link                  Flow  VelocityUnit Headloss    Status
  ID                     GPM       fps    ft/Kft
  ----------------------------------------------------------------------
  1                   530.19      2.17      1.86      Open
  2                   929.77      3.80      5.54      Open
  3                    30.19      0.09      0.00      Open
  4                  3540.04      2.51      0.84      Open
  5                   429.77      1.76      1.24      Open
  6                  1469.81      1.85      0.67      Open
  7                  1070.23      4.37      7.30      Open
  8                  5500.00     15.60     71.61      Open
  
