  Page 1                                    Thu Mar 23 15:49:29 2017

  ******************************************************************
  *                           E P A N E T                          *
  *                   Hydraulic and Water Quality                  *
  *                   Analysis for Pipe Networks                   *
  *                         Version 2.00.12                        *
  ******************************************************************
  
  Analysis begun Thu Mar 23 15:49:29 2017

   
  Hydraulic Status:
  -----------------------------------------------------------------------
     0:00:00: Balanced after 5 trials
     0:00:00: Reservoir 1 is emptying
   
   
  Node Results:
  --------------------------------------------------------
                  Elevation    Demand      Head  Pressure
  Node                   ft       gpm        ft       psi
  --------------------------------------------------------
  2                  100.00      0.00    117.12      7.42
  3                  100.00     31.56    114.98      6.49
  4                  100.00     31.56    114.98      6.49
  5                  100.00     31.56    114.69      6.37
  1                  100.00    -94.68    100.00      0.00  Reservoir
   
   
  Link Results:
  ----------------------------------------------------------------------------
                     Length  Diameter      Flow  Velocity  Headloss  F-Factor
  Link                   ft        in       gpm       fps   /1000ft          
  ----------------------------------------------------------------------------
  1                 3280.00      5.00     47.34      0.77      0.65     0.029
  2                 3280.00      5.00     15.78      0.26      0.09     0.035
  3                 3280.00      5.00     47.34      0.77      0.65     0.029
  4                 3280.00      5.00     15.78      0.26      0.09     0.035
  5                 1000.00      5.00      0.00      0.00      0.00   702.884
  6                    0.00     12.00     94.68      0.00    -17.12     0.000  Pump
   
  Analysis ended Thu Mar 23 15:49:29 2017
