  Page 1                                    Thu Mar 23 15:45:45 2017

  ******************************************************************
  *                           E P A N E T                          *
  *                   Hydraulic and Water Quality                  *
  *                   Analysis for Pipe Networks                   *
  *                         Version 2.00.12                        *
  ******************************************************************
  
  Analysis begun Thu Mar 23 15:45:45 2017

   
  Hydraulic Status:
  -----------------------------------------------------------------------
     0:00:00: Balanced after 5 trials
     0:00:00: Reservoir 1 is emptying
   
   
  Node Results:
  --------------------------------------------------------
                  Elevation    Demand      Head  Pressure
  Node                   ft       gpm        ft       psi
  --------------------------------------------------------
  2                  100.00      0.00    118.74      8.12
  3                  100.00     15.78    118.15      7.86
  4                  100.00     15.78    118.15      7.86
  5                  100.00     15.78    118.06      7.83
  1                  100.00    -47.34    100.00      0.00  Reservoir
   
   
  Link Results:
  ----------------------------------------------------------------------------
                     Length  Diameter      Flow  Velocity  Headloss  F-Factor
  Link                   ft        in       gpm       fps   /1000ft          
  ----------------------------------------------------------------------------
  1                 3280.00      5.00     23.67      0.39      0.18     0.032
  2                 3280.00      5.00      7.89      0.13      0.03     0.041
  3                 3280.00      5.00     23.67      0.39      0.18     0.032
  4                 3280.00      5.00      7.89      0.13      0.03     0.041
  5                 1000.00      5.00      0.00      0.00      0.00   408.583
  6                    0.00     12.00     47.34      0.00    -18.74     0.000  Pump
   
  Analysis ended Thu Mar 23 15:45:45 2017
