  Page 1                                    Thu Mar 23 15:51:16 2017

  ******************************************************************
  *                           E P A N E T                          *
  *                   Hydraulic and Water Quality                  *
  *                   Analysis for Pipe Networks                   *
  *                         Version 2.00.12                        *
  ******************************************************************
  
  Analysis begun Thu Mar 23 15:51:16 2017

   
  Hydraulic Status:
  -----------------------------------------------------------------------
     0:00:00: Balanced after 4 trials
     0:00:00: Reservoir 1 is emptying
   
   
  Node Results:
  --------------------------------------------------------
                  Elevation    Demand      Head  Pressure
  Node                   ft       gpm        ft       psi
  --------------------------------------------------------
  2                  100.00      0.00    113.52      5.86
  3                  100.00     47.34    108.91      3.86
  4                  100.00     47.34    108.91      3.86
  5                  100.00     47.34    108.32      3.60
  1                  100.00   -142.02    100.00      0.00  Reservoir
   
   
  Link Results:
  ----------------------------------------------------------------------------
                     Length  Diameter      Flow  Velocity  Headloss  F-Factor
  Link                   ft        in       gpm       fps   /1000ft          
  ----------------------------------------------------------------------------
  1                 3280.00      5.00     71.01      1.16      1.41     0.028
  2                 3280.00      5.00     23.67      0.39      0.18     0.032
  3                 3280.00      5.00     71.01      1.16      1.41     0.028
  4                 3280.00      5.00     23.67      0.39      0.18     0.032
  5                 1000.00      5.00      0.01      0.00      0.00   180.889
  6                    0.00     12.00    142.02      0.00    -13.52     0.000  Pump
   
  Analysis ended Thu Mar 23 15:51:16 2017
