  Page 1                                           10/28/2016 5:34:44 PM
  **********************************************************************
  *                             E P A N E T                            *
  *                     Hydraulic and Water Quality                    *
  *                     Analysis for Pipe Networks                     *
  *                           Version 2.0                              *
  **********************************************************************
  
  Input File: exam1-gpm.net
  
  
  
  Link - Node Table:
  ----------------------------------------------------------------------
  Link           Start          End                Length  Diameter
  ID             Node           Node                   ft        in
  ----------------------------------------------------------------------
  1              2              3                    3280         5
  2              3              5                    3280         5
  3              2              4                    3280         5
  4              4              5                    3280         5
  5              3              4                    1000         5
  6              1              2                    #N/A      #N/A Pump
  
  Energy Usage:
  ----------------------------------------------------------------------
                    Usage   Avg.     Kw-hr      Avg.      Peak      Cost
  Pump             Factor Effic.     /Mgal        Kw        Kw      /day
  ----------------------------------------------------------------------
  6                100.00  75.00    257.45      0.73      0.73      0.00
  ----------------------------------------------------------------------
                                                Demand Charge:      0.00
                                                Total Cost:         0.00
  
  Node Results:
  ----------------------------------------------------------------------
  Node                Demand      Head  Pressure   Quality
  ID                     GPM        ft       psi          
  ----------------------------------------------------------------------
  2                     0.00     61.46     26.63      0.00
  3                    15.78     60.87     26.37      0.00
  4                    15.78     60.87     26.37      0.00
  5                    15.78     60.78     26.34      0.00
  1                   -47.34      0.00      0.00      0.00 Reservoir
  


  Page 2                                                                
  Link Results:
  ----------------------------------------------------------------------
  Link                  Flow  VelocityUnit Headloss    Status
  ID                     GPM       fps    ft/Kft
  ----------------------------------------------------------------------
  1                    23.67      0.39      0.18      Open
  2                     7.89      0.13      0.03      Open
  3                    23.67      0.39      0.18      Open
  4                     7.89      0.13      0.03      Open
  5                     0.00      0.00      0.00      Open
  6                    47.34      0.00    -61.46      Open Pump
  
