  Page 1                                           10/28/2016 5:33:57 PM
  **********************************************************************
  *                             E P A N E T                            *
  *                     Hydraulic and Water Quality                    *
  *                     Analysis for Pipe Networks                     *
  *                           Version 2.0                              *
  **********************************************************************
  
  Input File: exam1-gpm.net
  
  
  
  Link - Node Table:
  ----------------------------------------------------------------------
  Link           Start          End                Length  Diameter
  ID             Node           Node                   ft        in
  ----------------------------------------------------------------------
  1              2              3                    3280         5
  2              3              5                    3280         5
  3              2              4                    3280         5
  4              4              5                    3280         5
  5              3              4                    1000         5
  6              1              2                    #N/A      #N/A Pump
  
  Energy Usage:
  ----------------------------------------------------------------------
                    Usage   Avg.     Kw-hr      Avg.      Peak      Cost
  Pump             Factor Effic.     /Mgal        Kw        Kw      /day
  ----------------------------------------------------------------------
  6                100.00  75.00    185.73      1.58      1.58      0.00
  ----------------------------------------------------------------------
                                                Demand Charge:      0.00
                                                Total Cost:         0.00
  
  Node Results:
  ----------------------------------------------------------------------
  Node                Demand      Head  Pressure   Quality
  ID                     GPM        ft       psi          
  ----------------------------------------------------------------------
  2                     0.00     44.34     19.21      0.00
  3                    47.34     39.73     17.22      0.00
  4                    47.34     39.73     17.22      0.00
  5                    47.34     39.14     16.96      0.00
  1                  -142.02      0.00      0.00      0.00 Reservoir
  


  Page 2                                                                
  Link Results:
  ----------------------------------------------------------------------
  Link                  Flow  VelocityUnit Headloss    Status
  ID                     GPM       fps    ft/Kft
  ----------------------------------------------------------------------
  1                    71.01      1.16      1.41      Open
  2                    23.67      0.39      0.18      Open
  3                    71.01      1.16      1.41      Open
  4                    23.67      0.39      0.18      Open
  5                     0.01      0.00      0.00      Open
  6                   142.02      0.00    -44.34      Open Pump
  
