  Page 1                                    Thu Mar 23 15:44:27 2017

  ******************************************************************
  *                           E P A N E T                          *
  *                   Hydraulic and Water Quality                  *
  *                   Analysis for Pipe Networks                   *
  *                         Version 2.00.12                        *
  ******************************************************************
  
  Analysis begun Thu Mar 23 15:44:27 2017

   
  Hydraulic Status:
  -----------------------------------------------------------------------
     0:00:00: Balanced after 7 trials
     0:00:00: Reservoir 1 is closed
   
   
  Node Results:
  --------------------------------------------------------
                  Elevation    Demand      Head  Pressure
  Node                   ft       gpm        ft       psi
  --------------------------------------------------------
  2                  100.00      0.00    120.00      8.67
  3                  100.00      0.01    120.00      8.67
  4                  100.00      0.01    120.00      8.67
  5                  100.00      0.01    120.00      8.67
  1                  100.00     -0.03    100.00      0.00  Reservoir
   
   
  Link Results:
  ----------------------------------------------------------------------------
                     Length  Diameter      Flow  Velocity  Headloss  F-Factor
  Link                   ft        in       gpm       fps   /1000ft          
  ----------------------------------------------------------------------------
  1                 3280.00      5.00      0.07      0.00      0.00     0.279
  2                 3280.00      5.00     -0.05      0.00      0.00     0.271
  3                 3280.00      5.00     -0.04      0.00      0.00     0.840
  4                 3280.00      5.00      0.06      0.00      0.00     0.189
  5                 1000.00      5.00      0.11      0.00      0.00     0.000
  6                    0.00     12.00      0.03      0.00    -20.00     0.000  Pump
   
  Analysis ended Thu Mar 23 15:44:27 2017
