  Page 1                                            12/1/2023 4:27:12 PM
  **********************************************************************
  *                             E P A N E T                            *
  *                     Hydraulic and Water Quality                    *
  *                     Analysis for Pipe Networks                     *
  *                           Version 2.2                              *
  **********************************************************************
  
  Input File: pecos-pipeline-layout-002.net
  
  
  
  Link - Node Table:
  ----------------------------------------------------------------------
  Link           Start          End                Length  Diameter
  ID             Node           Node                   ft        in
  ----------------------------------------------------------------------
  1              25W3FCV        J1                   1916         6
  2              25W5           J1                   1290         6
  3              25W4FCV        J2                   1101         6
  4              J1             J2                    601         6
  5              J2             J3                   1593         6
  6              25W2           J3                   1099         6
  J3-J4          J3             J4                    356         8
  30W6-30W5      30W6FCV        30W5                 2072         6
  30W5-J6        30W5           J6                    947         6
  30W3-J6        J6             30W3                  774         6
  30W3-J5        30W3           J5                   1349         8
  12             J5             30W1                  701         8
  25W1-30W1      30W1           25W1                 2965         8
  25W1-J4        25W1           J4                    705        10
  30W2-J5        30W2           J5                   2081         6
  30W4-J6        30W4           J6                   2260         6
  J4-J7          J4             J7                   2144        12
  J7-J8          J7             J8                   1230        12
  24W2-J8        24W2FCV        J8                   1375         6
  J8-J9          J8             J9                    635        12
  24W3-J9        24W3FCV        J9                    831         6
  J9-TERMINAL    J9             TERMINAL             2006        14
  24W1-J7        24W1FCV        J7                     82         6
  7              25             1                  113867     17.43
  P020           18             19                    709     17.43
  P019           19             16                   3792     17.43
  P018           16             13                   8440     17.43
  P017           13             20                    654     17.43
  P016           20             12                   1358     17.43
  P015           12             14                  12960     17.43
  P014           14             17                   5554     17.43
  P013           17             11                   5231     17.43
  P012           11             10                   4011     17.43
  P011           10             8                    3863     17.43
  P010           8              7                   19458     17.43
  P009           7              21                   1871     17.43
  P008           21             6                   12851     17.43


  Page 2                                                                
  Link - Node Table: (continued)
  ----------------------------------------------------------------------
  Link           Start          End                Length  Diameter
  ID             Node           Node                   ft        in
  ----------------------------------------------------------------------
  P007           6              5                   14340     17.43
  P006           5              22                   1681     17.43
  P005           22             23                   2639     17.43
  P004           23             4                    2587     17.43
  P003           4              3                     895     17.43
  P002           3              2                    4436     17.43
  P001           2              24                   2859     17.43
  15             TERMINAL       BIG_ISR               100        14
  16             BIG_ISR        18                    100     17.43
  P24W1          35             24W1                 #N/A      #N/A Pump
  P24W3          37             24W3                 #N/A      #N/A Pump
  P24W2          36             24W2                 #N/A      #N/A Pump
  P25W2          28             25W2FCV              #N/A      #N/A Pump
  P30W5          31             30W5FCV              #N/A      #N/A Pump
  P30W4          30             30W4FCV              #N/A      #N/A Pump
  P30W1          33             30W1FCV              #N/A      #N/A Pump
  P25W1          34             25W1FCV              #N/A      #N/A Pump
  P25W4          15             25W4                 #N/A      #N/A Pump
  P25W3          9              25W3                 #N/A      #N/A Pump
  P25W5          27             25W5FCV              #N/A      #N/A Pump
  P30W2          29             30W2FCV              #N/A      #N/A Pump
  P30W6          32             30W6                 #N/A      #N/A Pump
  P30W3          38             30W3FCV              #N/A      #N/A Pump
  9              25W4           25W4FCV              #N/A         6 Valve
  10             25W3           25W3FCV              #N/A         6 Valve
  FVC30W1        30W1FCV        30W1                 #N/A         6 Valve
  FCV25W1        25W1FCV        25W1                 #N/A         6 Valve
  FCV25W5        25W5FCV        25W5                 #N/A         6 Valve
  11             24W1           24W1FCV              #N/A         6 Valve
  FCV24W2        24W2           24W2FCV              #N/A         6 Valve
  13             24W3           24W3FCV              #N/A         6 Valve
  FCV30W6        30W6           30W6FCV              #N/A         6 Valve
  14             30W5FCV        30W5                 #N/A         6 Valve
  FCV30W4        30W4FCV        30W4                 #N/A         6 Valve
  FCV30W3        30W3FCV        30W3                 #N/A         6 Valve
  FCV25W2        25W2FCV        25W2                 #N/A         6 Valve
  FCV30W2        30W2FCV        30W2                 #N/A         6 Valve
  


  Page 3                                                                
  Energy Usage:
  ----------------------------------------------------------------------
                    Usage   Avg.     Kw-hr      Avg.      Peak      Cost
  Pump             Factor Effic.     /Mgal        Kw        Kw      /day
  ----------------------------------------------------------------------
  P24W1            100.00  75.00   2333.19     21.00     21.00      0.00
  P24W3            100.00  75.00   2333.19     21.00     21.00      0.00
  P24W2            100.00  75.00   2333.19     21.00     21.00      0.00
  P25W2            100.00  75.00   2333.19     21.00     21.00      0.00
  P30W5            100.00  75.00   2333.18     21.00     21.00      0.00
  P30W4            100.00  75.00   2333.19     21.00     21.00      0.00
  P30W1            100.00  75.00   2333.18     21.00     21.00      0.00
  P25W1            100.00  75.00   2333.18     21.00     21.00      0.00
  P25W4            100.00  75.00   2333.18     21.00     21.00      0.00
  P25W3            100.00  75.00   2333.18     21.00     21.00      0.00
  P25W5            100.00  75.00   2333.18     21.00     21.00      0.00
  P30W2            100.00  75.00   2333.19     21.00     21.00      0.00
  P30W6            100.00  75.00   2333.18     21.00     21.00      0.00
  P30W3            100.00  75.00   2333.19     21.00     21.00      0.00
  ----------------------------------------------------------------------
                                                Demand Charge:      0.00
                                                Total Cost:         0.00
  
  Node Results:
  ----------------------------------------------------------------------
  Node                Demand      Head  Pressure   Quality
  ID                     GPM        ft       psi          
  ----------------------------------------------------------------------
  J8                    0.00   2818.20     10.89      0.00
  J9                    0.00   2809.18      8.31      0.00
  J7                    0.00   2833.25     20.04      0.00
  TERMINAL              0.00   2793.77      1.09      0.00
  J4                    0.00   2855.58     27.90      0.00
  J3                    0.00   2859.68     29.16      0.00
  J2                    0.00   2903.46     45.13      0.00
  J1                    0.00   2911.25     47.37      0.00
  25W3                  0.00   3257.00    196.22      0.00
  25W4                  0.00   3207.00    173.75      0.00
  25W5                  0.00   2915.89     47.96      0.00
  25W1                  0.00   2863.31     27.91      0.00
  25W2                  0.00   2863.63     29.27      0.00
  30W1                  0.00   2935.74     57.00      0.00
  30W3                  0.00   2963.52     67.84      0.00
  30W5                  0.00   2997.06     79.56      0.00
  30W4                  0.00   2992.90     82.46      0.00
  30W6                  0.00   3217.00    171.90      0.00
  J6                    0.00   2984.78     74.78      0.00
  J5                    0.00   2947.96    928.03      0.00
  24W2                  0.00   3006.00     97.26      0.00
  24W3                  0.00   2992.00     86.50      0.00
  30W2                  0.00   2955.44     62.86      0.00
  24W1                  0.00   3017.00     99.45      0.00


  Page 4                                                                
  Node Results: (continued)
  ----------------------------------------------------------------------
  Node                Demand      Head  Pressure   Quality
  ID                     GPM        ft       psi          
  ----------------------------------------------------------------------
  2                     0.00   2602.08      1.33      0.00
  3                     0.00   2609.96      8.65      0.00
  4                     0.00   2611.55      9.34      0.00
  5                     0.00   2623.83     22.46      0.00
  6                     0.00   2649.31     35.67      0.00
  7                     0.00   2675.48     44.84      0.00
  8                     0.00   2710.06     35.56      0.00
  10                    0.00   2716.92     35.93      0.00
  11                    0.00   2724.05     28.62      0.00
  12                    0.00   2766.25     -1.63      0.00
  13                    0.00   2769.82     -0.08      0.00
  14                    0.00   2743.22      3.56      0.00
  16                    0.00   2784.82      2.09      0.00
  17                    0.00   2733.35     23.12      0.00
  18                    0.00   2792.82     -0.08      0.00
  19                    0.00   2791.56     -1.06      0.00
  20                    0.00   2768.66     -1.01      0.00
  21                    0.00   2672.15     46.43      0.00
  22                    0.00   2620.84     21.60      0.00
  23                    0.00   2616.15     15.23      0.00
  25                    0.00     10.00      4.33      0.00
  25W4FCV               0.00   2907.41     43.94      0.00
  25W3FCV               0.00   2918.14     49.39      0.00
  30W1FCV               0.00   3207.00    174.54      0.00
  25W1FCV               0.00   3157.00    155.17      0.00
  25W5FCV               0.00   3257.00    195.76      0.00
  24W1FCV               0.00   2833.54     19.95      0.00
  24W2FCV               0.00   2823.13     18.03      0.00
  24W3FCV               0.00   2812.17      8.58      0.00
  30W6FCV               0.00   3004.51     79.83      0.00
  30W5FCV               0.00   3215.00    173.99      0.00
  30W4FCV               0.00   3200.00    172.20      0.00
  30W3FCV               0.00   3158.00    152.11      0.00
  25W2FCV               0.00   3052.00    110.89      0.00
  30W2FCV               0.00   3140.00    142.83      0.00
  9                  -150.00   2700.00      0.00      0.00 Reservoir
  15                 -150.00   2650.00      0.00      0.00 Reservoir
  27                 -150.00   2700.00      0.00      0.00 Reservoir
  28                 -150.00   2495.00      0.00      0.00 Reservoir
  29                 -150.00   2583.00      0.00      0.00 Reservoir
  30                 -150.00   2643.00      0.00      0.00 Reservoir
  31                 -150.00   2658.00      0.00      0.00 Reservoir
  32                 -150.00   2660.00      0.00      0.00 Reservoir
  33                 -150.00   2650.00      0.00      0.00 Reservoir
  34                 -150.00   2600.00      0.00      0.00 Reservoir
  35                 -150.00   2460.00      0.00      0.00 Reservoir
  36                 -150.00   2449.00      0.00      0.00 Reservoir


  Page 5                                                                
  Node Results: (continued)
  ----------------------------------------------------------------------
  Node                Demand      Head  Pressure   Quality
  ID                     GPM        ft       psi          
  ----------------------------------------------------------------------
  37                 -150.00   2435.00      0.00      0.00 Reservoir
  38                 -150.00   2601.00      0.00      0.00 Reservoir
  24                 1695.09   2597.00      0.00      0.00 Reservoir
  1                     0.00     10.00      4.33      0.00 Tank
  BIG_ISR             404.93   2793.00      0.43      0.00 Tank
  SMALL_ISR             0.00   2802.00      4.33      0.00 Tank
  
  Link Results:
  ----------------------------------------------------------------------
  Link                  Flow  VelocityUnit Headloss    Status
  ID                     GPM       fps    ft/Kft
  ----------------------------------------------------------------------
  1                   150.00      1.70      3.59      Open
  2                   150.00      1.70      3.59      Open
  3                   150.00      1.70      3.59      Open
  4                   300.00      3.40     12.97      Open
  5                   450.00      5.11     27.48      Open
  6                   150.00      1.70      3.59      Open
  J3-J4               600.01      3.83     11.53      Open
  30W6-30W5           150.00      1.70      3.59      Open
  30W5-J6             300.00      3.40     12.97      Open
  30W3-J6             450.00      5.11     27.48      Open
  30W3-J5             600.00      3.83     11.53      Open
  12                  750.00      4.79     17.43      Open
  25W1-30W1           900.01      5.74     24.43      Open
  25W1-J4            1050.01      4.29     10.96      Open
  30W2-J5             150.00      1.70      3.59      Open
  30W4-J6             150.00      1.70      3.59      Open
  J4-J7              1650.01      4.68     10.42      Open
  J7-J8              1800.01      5.11     12.24      Open
  24W2-J8             150.00      1.70      3.59      Open
  J8-J9              1950.01      5.53     14.19      Open
  24W3-J9             150.00      1.70      3.59      Open
  J9-TERMINAL        2100.01      4.38      7.68      Open
  24W1-J7             150.00      1.70      3.59      Open
  7                     0.00      0.00      0.00      Open
  P020               1695.09      2.28      1.78      Open
  P019               1695.09      2.28      1.78      Open
  P018               1695.09      2.28      1.78      Open
  P017               1695.09      2.28      1.78      Open
  P016               1695.09      2.28      1.78      Open
  P015               1695.09      2.28      1.78      Open
  P014               1695.09      2.28      1.78      Open
  P013               1695.09      2.28      1.78      Open
  P012               1695.09      2.28      1.78      Open
  P011               1695.09      2.28      1.78      Open
  P010               1695.09      2.28      1.78      Open


  Page 6                                                                
  Link Results: (continued)
  ----------------------------------------------------------------------
  Link                  Flow  VelocityUnit Headloss    Status
  ID                     GPM       fps    ft/Kft
  ----------------------------------------------------------------------
  P009               1695.09      2.28      1.78      Open
  P008               1695.09      2.28      1.78      Open
  P007               1695.09      2.28      1.78      Open
  P006               1695.09      2.28      1.78      Open
  P005               1695.09      2.28      1.78      Open
  P004               1695.09      2.28      1.78      Open
  P003               1695.09      2.28      1.78      Open
  P002               1695.09      2.28      1.78      Open
  P001               1695.09      2.28      1.78      Open
  15                 2100.01      4.38      7.68      Open
  16                 1695.09      2.28      1.78      Open
  P24W1               150.00      0.00   -557.00      Open Pump
  P24W3               150.00      0.00   -557.00      Open Pump
  P24W2               150.00      0.00   -557.00      Open Pump
  P25W2               150.00      0.00   -557.00      Open Pump
  P30W5               150.00      0.00   -557.00      Open Pump
  P30W4               150.00      0.00   -557.00      Open Pump
  P30W1               150.00      0.00   -557.00      Open Pump
  P25W1               150.00      0.00   -557.00      Open Pump
  P25W4               150.00      0.00   -557.00      Open Pump
  P25W3               150.00      0.00   -557.00      Open Pump
  P25W5               150.00      0.00   -557.00      Open Pump
  P30W2               150.00      0.00   -557.00      Open Pump
  P30W6               150.00      0.00   -557.00      Open Pump
  P30W3               150.00      0.00   -557.00      Open Pump
  9                   150.00      1.70    299.58    Active Valve
  10                  150.00      1.70    338.86    Active Valve
  FVC30W1             150.00      1.70    271.25    Active Valve
  FCV25W1             150.00      1.70    293.69    Active Valve
  FCV25W5             150.00      1.70    341.11    Active Valve
  11                  150.00      1.70    183.46    Active Valve
  FCV24W2             150.00      1.70    182.86    Active Valve
  13                  150.00      1.70    179.83    Active Valve
  FCV30W6             150.00      1.70    212.49    Active Valve
  14                  150.00      1.70    217.93    Active Valve
  FCV30W4             150.00      1.70    207.09    Active Valve
  FCV30W3             150.00      1.70    194.48    Active Valve
  FCV25W2             150.00      1.70    188.37    Active Valve
  FCV30W2             150.00      1.70    184.56    Active Valve
  
