  Page 1                                            9/29/2016 2:57:35 PM
  **********************************************************************
  *                             E P A N E T                            *
  *                     Hydraulic and Water Quality                    *
  *                     Analysis for Pipe Networks                     *
  *                           Version 2.0                              *
  **********************************************************************
  
  Input File: Example3.net
  
  
  
  Link - Node Table:
  ----------------------------------------------------------------------
  Link           Start          End                Length  Diameter
  ID             Node           Node                    m        mm
  ----------------------------------------------------------------------
  1              1              A                       1      2000
  2              2              C                       1      2000
  3              A              B                     700       250
  4              B              C                     800       300
  5              C              D                    1200       350
  6              D              A                    1000       400
  
  Node Results:
  ----------------------------------------------------------------------
  Node                Demand      Head  Pressure   Quality
  ID                     LPS         m         m          
  ----------------------------------------------------------------------
  A                     0.00     75.00     25.00      0.00
  B                  -200.00     78.53     28.53      0.00
  C                     0.00     70.00     20.00      0.00
  D                   200.00     70.00     20.00      0.00
  1                  -141.95     75.00      0.00      0.00 Reservoir
  2                   141.95     70.00      0.00      0.00 Reservoir
  
  Link Results:
  ----------------------------------------------------------------------
  Link                  Flow  VelocityUnit Headloss    Status
  ID                     LPS       m/s      m/km
  ----------------------------------------------------------------------
  1                   141.95      0.05      0.00      Open
  2                  -141.95      0.05      0.00      Open
  3                   -58.47      1.19      5.04      Open
  4                   141.53      2.00     10.66      Open
  5                    -0.42      0.00      0.00      Open
  6                  -200.42      1.59      5.00      Open
  
